# Mol2 written by MVD (www.molegro.com)

#
# Pose information:
# Energy: -145.22
# RMSD: 5.04717
#
@<TRIPOS>MOLECULE
[00]PET_1
   98   101    1     0     0
SMALL
USER_CHARGES


@<TRIPOS>ATOM
      1 O1         -6.9908  -12.7158    3.2436 O.3       1     POS1    0.0000
      2 C1         -7.8001  -13.8439    2.9572 C.3       1     POS1    0.0000
      3 C2         -9.1751  -13.5445    3.5458 C.3       1     POS1    0.0000
      4 O2         -9.9599  -12.7951    2.6125 O.3       1     POS1    0.0000
      5 C3        -11.3156  -13.0007    2.6123 C.2       1     POS1    0.0000
      6 O3        -11.7329  -14.1535    2.4624 O.3       1     POS1    0.0000
      7 C4        -12.1078  -11.7745    2.7937 C.2       1     POS1    0.0000
      8 C5        -13.1374  -11.7071    3.7413 C.2       1     POS1    0.0000
      9 C6        -13.8669  -10.5289    3.8866 C.2       1     POS1    0.0000
     10 C7        -13.5703   -9.4189    3.0865 C.2       1     POS1    0.0000
     11 C8        -12.5408   -9.4860    2.1398 C.2       1     POS1    0.0000
     12 C9        -11.8110  -10.6636    1.9932 C.2       1     POS1    0.0000
     13 H1        -10.9916  -10.7007    1.2874 H         1     POS1    0.0000
     14 H2        -12.2335   -8.5940    1.6095 H         1     POS1    0.0000
     15 C10       -14.3636   -8.1922    3.2687 C.2       1     POS1    0.0000
     16 O4        -14.0719   -7.0459    2.9199 O.3       1     POS1    0.0000
     17 O5        -15.5604   -8.3926    3.9067 O.3       1     POS1    0.0000
     18 C11       -16.7580   -8.1490    3.1627 C.3       1     POS1    0.0000
     19 C12       -17.2730   -6.7423    3.4440 C.3       1     POS1    0.0000
     20 O6        -18.3727   -6.4398    2.5823 O.3       1     POS1    0.0000
     21 C13       -18.8339   -5.1474    2.5718 C.2       1     POS1    0.0000
     22 O7        -19.8576   -4.8984    1.9297 O.3       1     POS1    0.0000
     23 C14       -18.0104   -4.2112    3.3535 C.2       1     POS1    0.0000
     24 C15       -18.0500   -4.2007    4.7533 C.2       1     POS1    0.0000
     25 C16       -17.2576   -3.3002    5.4621 C.2       1     POS1    0.0000
     26 C17       -16.4256   -2.4104    4.7710 C.2       1     POS1    0.0000
     27 C18       -16.3868   -2.4198    3.3722 C.2       1     POS1    0.0000
     28 C19       -17.1779   -3.3195    2.6627 C.2       1     POS1    0.0000
     29 H3        -17.1347   -3.3696    1.5885 H         1     POS1    0.0000
     30 H4        -15.7281   -1.7496    2.8413 H         1     POS1    0.0000
     31 C20       -15.5741   -1.4464    5.4878 C.2       1     POS1    0.0000
     32 O8        -14.9266   -1.6349    6.5220 O.3       1     POS1    0.0000
     33 O9        -15.5178   -0.2070    4.9053 O.3       1     POS1    0.0000
     34 C21       -16.6771    0.2433    4.1957 C.3       1     POS1    0.0000
     35 C22       -16.5748    1.7091    3.8065 C.3       1     POS1    0.0000
     36 O10       -16.8767    1.9206    2.4240 O.3       1     POS1    0.0000
     37 C23       -16.5924    3.1491    1.8932 C.2       1     POS1    0.0000
     38 O11       -16.3814    3.2281    0.6793 O.3       1     POS1    0.0000
     39 C24       -16.5698    4.2416    2.8804 C.ar      1     POS1    0.0000
     40 C25       -15.5971    4.2099    3.8891 C.ar      1     POS1    0.0000
     41 C26       -15.5484    5.2285    4.8387 C.ar      1     POS1    0.0000
     42 C27       -16.4703    6.2779    4.7828 C.ar      1     POS1    0.0000
     43 C28       -17.4436    6.3104    3.7741 C.ar      1     POS1    0.0000
     44 C29       -17.4935    5.2934    2.8232 C.ar      1     POS1    0.0000
     45 H5        -18.2307    5.3278    2.0338 H         1     POS1    0.0000
     46 H6        -18.1182    7.1456    3.6851 H         1     POS1    0.0000
     47 C30       -16.4515    7.3728    5.7676 C.2       1     POS1    0.0000
     48 O12       -16.9730    7.3861    6.8849 O.3       1     POS1    0.0000
     49 O13       -15.7737    8.4869    5.3414 O.3       1     POS1    0.0000
     50 C31       -16.5003    9.7101    5.1855 C.3       1     POS1    0.0000
     51 C32       -15.5421   10.8284    4.8004 C.3       1     POS1    0.0000
     52 O14       -15.2323   10.8010    3.4040 O.3       1     POS1    0.0000
     53 C33       -14.3845   11.7679    2.9249 C.2       1     POS1    0.0000
     54 O15       -14.8365   12.5949    2.1277 O.3       1     POS1    0.0000
     55 C34       -13.0087   11.6648    3.4340 C.2       1     POS1    0.0000
     56 C35       -12.0897   10.8858    2.7152 C.2       1     POS1    0.0000
     57 C36       -10.7780   10.7689    3.1672 C.2       1     POS1    0.0000
     58 C37       -10.3820   11.4305    4.3365 C.2       1     POS1    0.0000
     59 C38       -11.2970   12.2078    5.0543 C.2       1     POS1    0.0000
     60 C39       -12.6111   12.3251    4.6022 C.2       1     POS1    0.0000
     61 H7        -13.3180   12.9374    5.1489 H         1     POS1    0.0000
     62 H8        -10.9869   12.7358    5.9417 H         1     POS1    0.0000
     63 C40        -8.9867   11.2816    4.7838 C.2       1     POS1    0.0000
     64 O16        -8.3325   12.0531    5.4895 O.3       1     POS1    0.0000
     65 O17        -8.3780   10.1336    4.3429 O.3       1     POS1    0.0000
     66 C41        -8.1984    9.9776    2.9294 C.3       1     POS1    0.0000
     67 C42        -7.8756    8.5249    2.6007 C.3       1     POS1    0.0000
     68 O18        -6.9966    7.9563    3.5494 O.3       1     POS1    0.0000
     69 H9         -7.2050    8.3315    4.4216 H         1     POS1    0.0000
     70 H10        -7.4121    8.4495    1.5904 H         1     POS1    0.0000
     71 H11        -8.8169    7.9289    2.5838 H         1     POS1    0.0000
     72 H12        -7.2765   10.5467    2.8437 H         1     POS1    0.0000
     73 H13        -8.9696   10.3574    2.2723 H         1     POS1    0.0000
     74 H14       -10.1558   10.1296    2.5894 H         1     POS1    0.0000
     75 H15       -12.4493   10.2290    1.9696 H         1     POS1    0.0000
     76 H16       -14.6103   10.6901    5.4004 H         1     POS1    0.0000
     77 H17       -15.9437   11.8228    5.0868 H         1     POS1    0.0000
     78 H18       -17.0510    9.9436    6.1228 H         1     POS1    0.0000
     79 H19       -17.2675    9.5975    4.3826 H         1     POS1    0.0000
     80 H20       -14.8046    5.1901    5.6194 H         1     POS1    0.0000
     81 H21       -14.8839    3.3947    3.9144 H         1     POS1    0.0000
     82 H22       -15.5532    2.0939    4.0273 H         1     POS1    0.0000
     83 H23       -17.2950    2.2882    4.4294 H         1     POS1    0.0000
     84 H24       -17.5496    0.1394    4.8792 H         1     POS1    0.0000
     85 H25       -16.9042   -0.3454    3.2786 H         1     POS1    0.0000
     86 H26       -17.4824   -3.1600    6.4924 H         1     POS1    0.0000
     87 H27       -18.9404   -4.5339    5.2802 H         1     POS1    0.0000
     88 H28       -16.2482   -6.3836    3.4323 H         1     POS1    0.0000
     89 H29       -17.6293   -6.6818    4.4989 H         1     POS1    0.0000
     90 H30       -17.6743   -8.6446    3.5789 H         1     POS1    0.0000
     91 H31       -16.5904   -7.9293    2.0631 H         1     POS1    0.0000
     92 H32       -13.3489  -10.4774    4.8543 H         1     POS1    0.0000
     93 H33       -13.3309  -12.5603    4.3828 H         1     POS1    0.0000
     94 H34        -9.0378  -12.9437    4.4749 H         1     POS1    0.0000
     95 H35        -9.7251  -14.4552    3.8351 H         1     POS1    0.0000
     96 H36        -7.3557  -14.7431    3.4403 H         1     POS1    0.0000
     97 H37        -7.8867  -14.0403    1.8749 H         1     POS1    0.0000
     98 H38        -6.3098  -12.7236    2.5474 H         1     POS1    0.0000
@<TRIPOS>BOND
     1    1    2 1
     2    1   98 1
     3    2    3 1
     4    2   96 1
     5    2   97 1
     6    3    4 1
     7    3   94 1
     8    3   95 1
     9    4    5 1
    10    5    6 1
    11    5    7 1
    12    7    8 2
    13    7   12 1
    14    8    9 1
    15    8   93 1
    16    9   10 1
    17    9   92 1
    18   10   11 1
    19   10   15 1
    20   11   12 2
    21   11   14 1
    22   12   13 1
    23   15   16 1
    24   15   17 1
    25   17   18 1
    26   18   19 1
    27   18   90 1
    28   18   91 1
    29   19   20 1
    30   19   88 1
    31   19   89 1
    32   20   21 1
    33   21   22 1
    34   21   23 1
    35   23   24 2
    36   23   28 1
    37   24   25 2
    38   24   87 1
    39   25   26 1
    40   25   86 1
    41   26   27 1
    42   26   31 1
    43   27   28 2
    44   27   30 1
    45   28   29 1
    46   31   32 1
    47   31   33 1
    48   33   34 1
    49   34   35 1
    50   34   84 1
    51   34   85 1
    52   35   36 1
    53   35   82 1
    54   35   83 1
    55   36   37 1
    56   37   38 1
    57   37   39 1
    58   39   40 ar
    59   39   44 ar
    60   40   41 ar
    61   40   81 1
    62   41   42 ar
    63   41   80 1
    64   42   43 ar
    65   42   47 1
    66   43   44 ar
    67   43   46 1
    68   44   45 1
    69   47   48 1
    70   47   49 1
    71   49   50 1
    72   50   51 1
    73   50   78 1
    74   50   79 1
    75   51   52 1
    76   51   76 1
    77   51   77 1
    78   52   53 1
    79   53   54 1
    80   53   55 1
    81   55   56 1
    82   55   60 2
    83   56   57 2
    84   56   75 1
    85   57   58 1
    86   57   74 1
    87   58   59 1
    88   58   63 1
    89   59   60 2
    90   59   62 1
    91   60   61 1
    92   63   64 1
    93   63   65 1
    94   65   66 1
    95   66   67 1
    96   66   72 1
    97   66   73 1
    98   67   68 1
    99   67   70 1
   100   67   71 1
   101   68   69 1
@<TRIPOS>SUBSTRUCTURE
     1     POS1    1   GROUP 1   POS 1
