# Mol2 written by MVD (www.molegro.com)

#
# Pose information:
# Energy: -149.243
# RMSD: 10.8231
#
@<TRIPOS>MOLECULE
[01]PET_1
   98   101    1     0     0
SMALL
USER_CHARGES


@<TRIPOS>ATOM
      1 O1        -26.9862   -4.3659   -2.2738 O.3       1     POS1    0.0000
      2 C1        -26.1303   -4.7047   -1.1957 C.3       1     POS1    0.0000
      3 C2        -26.2065   -6.2210   -1.0493 C.3       1     POS1    0.0000
      4 O2        -25.4086   -6.6514    0.0584 O.3       1     POS1    0.0000
      5 C3        -24.0456   -6.5938   -0.0794 C.2       1     POS1    0.0000
      6 O3        -23.5126   -7.3096   -0.9333 O.3       1     POS1    0.0000
      7 C4        -23.3888   -5.6567    0.8450 C.2       1     POS1    0.0000
      8 C5        -22.6421   -4.5703    0.3709 C.2       1     POS1    0.0000
      9 C6        -22.0342   -3.7021    1.2755 C.2       1     POS1    0.0000
     10 C7        -22.1701   -3.9180    2.6521 C.2       1     POS1    0.0000
     11 C8        -22.9170   -5.0034    3.1261 C.2       1     POS1    0.0000
     12 C9        -23.5249   -5.8725    2.2227 C.2       1     POS1    0.0000
     13 H1        -24.1325   -6.6884    2.5916 H         1     POS1    0.0000
     14 H2        -23.1218   -5.0993    4.1845 H         1     POS1    0.0000
     15 C10       -21.5126   -2.9797    3.5765 C.2       1     POS1    0.0000
     16 O4        -20.3215   -2.6621    3.6089 O.3       1     POS1    0.0000
     17 O5        -22.3608   -2.4157    4.4942 O.3       1     POS1    0.0000
     18 C11       -22.0035   -2.5140    5.8762 C.3       1     POS1    0.0000
     19 C12       -21.3318   -1.2258    6.3370 C.3       1     POS1    0.0000
     20 O6        -20.2939   -1.5205    7.2746 O.3       1     POS1    0.0000
     21 C13       -19.2760   -0.6090    7.4020 C.2       1     POS1    0.0000
     22 O7        -19.0512   -0.1379    8.5199 O.3       1     POS1    0.0000
     23 C14       -18.5763   -0.3127    6.1418 C.2       1     POS1    0.0000
     24 C15       -17.2130   -0.5912    5.9831 C.2       1     POS1    0.0000
     25 C16       -16.5817   -0.2969    4.7765 C.2       1     POS1    0.0000
     26 C17       -17.3136    0.2758    3.7287 C.2       1     POS1    0.0000
     27 C18       -18.6756    0.5553    3.8875 C.2       1     POS1    0.0000
     28 C19       -19.3078    0.2614    5.0926 C.2       1     POS1    0.0000
     29 H3        -20.3623    0.4327    5.2227 H         1     POS1    0.0000
     30 H4        -19.2439    0.9752    3.0716 H         1     POS1    0.0000
     31 C20       -16.6790    0.5986    2.4398 C.2       1     POS1    0.0000
     32 O8        -17.0893    1.3722    1.5695 O.3       1     POS1    0.0000
     33 O9        -15.4943   -0.0547    2.2193 O.3       1     POS1    0.0000
     34 C21       -15.5429   -1.4773    2.0637 C.3       1     POS1    0.0000
     35 C22       -14.1582   -2.1032    2.1006 C.3       1     POS1    0.0000
     36 O10       -14.1191   -3.2738    2.9224 O.3       1     POS1    0.0000
     37 C23       -12.9248   -3.9320    3.0327 C.2       1     POS1    0.0000
     38 O11       -11.9752   -3.3393    3.5535 O.3       1     POS1    0.0000
     39 C24       -12.9384   -5.3004    2.4886 C.ar      1     POS1    0.0000
     40 C25       -11.8181   -5.7456    1.7733 C.ar      1     POS1    0.0000
     41 C26       -11.7991   -7.0351    1.2456 C.ar      1     POS1    0.0000
     42 C27       -12.8973   -7.8800    1.4303 C.ar      1     POS1    0.0000
     43 C28       -14.0182   -7.4356    2.1457 C.ar      1     POS1    0.0000
     44 C29       -14.0391   -6.1469    2.6749 C.ar      1     POS1    0.0000
     45 H5        -14.8944   -5.8102    3.2432 H         1     POS1    0.0000
     46 H6        -14.8429   -8.0989    2.3470 H         1     POS1    0.0000
     47 C30       -12.9154   -9.2493    0.8883 C.2       1     POS1    0.0000
     48 O12       -13.6689  -10.1721    1.2061 O.3       1     POS1    0.0000
     49 O13       -11.9582   -9.4771   -0.0678 O.3       1     POS1    0.0000
     50 C31       -11.8642  -10.7848   -0.6418 C.3       1     POS1    0.0000
     51 C32       -10.5775  -10.8983   -1.4472 C.3       1     POS1    0.0000
     52 O14       -10.5231   -9.9261   -2.4954 O.3       1     POS1    0.0000
     53 C33       -10.0332  -10.3331   -3.7110 C.2       1     POS1    0.0000
     54 O15        -9.8534   -9.4771   -4.5819 O.3       1     POS1    0.0000
     55 C34        -9.8023  -11.7821   -3.8097 C.2       1     POS1    0.0000
     56 C35       -10.8953  -12.6120   -4.1002 C.2       1     POS1    0.0000
     57 C36       -10.7118  -13.9882   -4.2039 C.2       1     POS1    0.0000
     58 C37        -9.4366  -14.5374   -4.0190 C.2       1     POS1    0.0000
     59 C38        -8.3455  -13.7113   -3.7296 C.2       1     POS1    0.0000
     60 C39        -8.5288  -12.3327   -3.6253 C.2       1     POS1    0.0000
     61 H7         -7.6829  -11.6895   -3.4145 H         1     POS1    0.0000
     62 H8         -7.3596  -14.1308   -3.6098 H         1     POS1    0.0000
     63 C40        -9.2822  -15.9974   -4.1350 C.2       1     POS1    0.0000
     64 O16        -8.8760  -16.7853   -3.2775 O.3       1     POS1    0.0000
     65 O17        -9.6458  -16.5023   -5.3580 O.3       1     POS1    0.0000
     66 C41        -8.8976  -16.0736   -6.5030 C.3       1     POS1    0.0000
     67 C42        -7.5609  -16.8038   -6.5572 C.3       1     POS1    0.0000
     68 O18        -6.7487  -16.4923   -5.4440 O.3       1     POS1    0.0000
     69 H9         -7.3246  -16.3728   -4.6701 H         1     POS1    0.0000
     70 H10        -7.0113  -16.5382   -7.4892 H         1     POS1    0.0000
     71 H11        -7.7379  -17.9037   -6.5735 H         1     POS1    0.0000
     72 H12        -8.7039  -15.0578   -6.1691 H         1     POS1    0.0000
     73 H13        -9.3857  -16.0948   -7.4685 H         1     POS1    0.0000
     74 H14       -11.5954  -14.5500   -4.3863 H         1     POS1    0.0000
     75 H15       -11.8722  -12.2163   -4.0236 H         1     POS1    0.0000
     76 H16       -10.5450  -11.9275   -1.8798 H         1     POS1    0.0000
     77 H17        -9.6827  -10.8134   -0.7958 H         1     POS1    0.0000
     78 H18       -12.7611  -10.9875   -1.2670 H         1     POS1    0.0000
     79 H19       -11.8556  -11.5554    0.1657 H         1     POS1    0.0000
     80 H20       -10.9382   -7.3658    0.6854 H         1     POS1    0.0000
     81 H21       -10.9709   -5.0825    1.6458 H         1     POS1    0.0000
     82 H22       -13.4128   -1.3633    2.4713 H         1     POS1    0.0000
     83 H23       -13.8704   -2.3791    1.0598 H         1     POS1    0.0000
     84 H24       -15.9788   -1.6899    1.0617 H         1     POS1    0.0000
     85 H25       -16.1789   -1.9942    2.8170 H         1     POS1    0.0000
     86 H26       -15.5178   -0.3017    4.7697 H         1     POS1    0.0000
     87 H27       -16.5531   -0.6152    6.8464 H         1     POS1    0.0000
     88 H28       -22.3141   -0.7877    6.4867 H         1     POS1    0.0000
     89 H29       -20.8741   -0.7118    5.4597 H         1     POS1    0.0000
     90 H30       -21.0975   -3.1432    6.0799 H         1     POS1    0.0000
     91 H31       -22.8710   -2.3860    6.5950 H         1     POS1    0.0000
     92 H32       -22.7855   -2.9918    0.9034 H         1     POS1    0.0000
     93 H33       -22.5778   -4.3906   -0.6970 H         1     POS1    0.0000
     94 H34       -25.8163   -6.6858   -1.9846 H         1     POS1    0.0000
     95 H35       -27.2380   -6.5879   -0.9190 H         1     POS1    0.0000
     96 H36       -26.4946   -4.2040   -0.2703 H         1     POS1    0.0000
     97 H37       -25.0860   -4.3934   -1.3688 H         1     POS1    0.0000
     98 H38       -26.6260   -3.5276   -2.6145 H         1     POS1    0.0000
@<TRIPOS>BOND
     1    1    2 1
     2    1   98 1
     3    2    3 1
     4    2   96 1
     5    2   97 1
     6    3    4 1
     7    3   94 1
     8    3   95 1
     9    4    5 1
    10    5    6 1
    11    5    7 1
    12    7    8 2
    13    7   12 1
    14    8    9 1
    15    8   93 1
    16    9   10 1
    17    9   92 1
    18   10   11 1
    19   10   15 1
    20   11   12 2
    21   11   14 1
    22   12   13 1
    23   15   16 1
    24   15   17 1
    25   17   18 1
    26   18   19 1
    27   18   90 1
    28   18   91 1
    29   19   20 1
    30   19   88 1
    31   19   89 1
    32   20   21 1
    33   21   22 1
    34   21   23 1
    35   23   24 2
    36   23   28 1
    37   24   25 2
    38   24   87 1
    39   25   26 1
    40   25   86 1
    41   26   27 1
    42   26   31 1
    43   27   28 2
    44   27   30 1
    45   28   29 1
    46   31   32 1
    47   31   33 1
    48   33   34 1
    49   34   35 1
    50   34   84 1
    51   34   85 1
    52   35   36 1
    53   35   82 1
    54   35   83 1
    55   36   37 1
    56   37   38 1
    57   37   39 1
    58   39   40 ar
    59   39   44 ar
    60   40   41 ar
    61   40   81 1
    62   41   42 ar
    63   41   80 1
    64   42   43 ar
    65   42   47 1
    66   43   44 ar
    67   43   46 1
    68   44   45 1
    69   47   48 1
    70   47   49 1
    71   49   50 1
    72   50   51 1
    73   50   78 1
    74   50   79 1
    75   51   52 1
    76   51   76 1
    77   51   77 1
    78   52   53 1
    79   53   54 1
    80   53   55 1
    81   55   56 1
    82   55   60 2
    83   56   57 2
    84   56   75 1
    85   57   58 1
    86   57   74 1
    87   58   59 1
    88   58   63 1
    89   59   60 2
    90   59   62 1
    91   60   61 1
    92   63   64 1
    93   63   65 1
    94   65   66 1
    95   66   67 1
    96   66   72 1
    97   66   73 1
    98   67   68 1
    99   67   70 1
   100   67   71 1
   101   68   69 1
@<TRIPOS>SUBSTRUCTURE
     1     POS1    1   GROUP 1   POS 1
