# Mol2 written by MVD (www.molegro.com)

#
# Pose information:
# Energy: -184.682
# RMSD: 10.751
#
@<TRIPOS>MOLECULE
[02]PET_1
   98   101    1     0     0
SMALL
USER_CHARGES


@<TRIPOS>ATOM
      1 O1         -4.8441  -14.8267   -3.6140 O.3       1     POS1    0.0000
      2 C1         -5.0931  -14.8679   -2.2191 C.3       1     POS1    0.0000
      3 C2         -3.7277  -14.8380   -1.5397 C.3       1     POS1    0.0000
      4 O2         -3.8819  -14.6633   -0.1275 O.3       1     POS1    0.0000
      5 C3         -4.5124  -15.6604    0.5715 C.2       1     POS1    0.0000
      6 O3         -4.1234  -16.8221    0.4138 O.3       1     POS1    0.0000
      7 C4         -5.6032  -15.1875    1.4378 C.2       1     POS1    0.0000
      8 C5         -5.5042  -13.9781    2.1377 C.2       1     POS1    0.0000
      9 C6         -6.5575  -13.5606    2.9488 C.2       1     POS1    0.0000
     10 C7         -7.7084  -14.3497    3.0626 C.2       1     POS1    0.0000
     11 C8         -7.8077  -15.5583    2.3625 C.2       1     POS1    0.0000
     12 C9         -6.7551  -15.9770    1.5516 C.2       1     POS1    0.0000
     13 H1         -6.8497  -16.8925    0.9826 H         1     POS1    0.0000
     14 H2         -8.7417  -16.1051    2.3553 H         1     POS1    0.0000
     15 C10        -8.7996  -13.8758    3.9297 C.2       1     POS1    0.0000
     16 O4         -8.8541  -13.9100    5.1612 O.3       1     POS1    0.0000
     17 O5         -9.8615  -13.3414    3.2468 O.3       1     POS1    0.0000
     18 C11        -9.5756  -12.5485    2.0906 C.3       1     POS1    0.0000
     19 C12       -10.8392  -11.8421    1.6137 C.3       1     POS1    0.0000
     20 O6        -10.5978  -11.1933    0.3631 O.3       1     POS1    0.0000
     21 C13       -11.6315  -10.4829   -0.1934 C.2       1     POS1    0.0000
     22 O7        -12.2441  -10.9873   -1.1381 O.3       1     POS1    0.0000
     23 C14       -11.8671   -9.1745    0.4377 C.2       1     POS1    0.0000
     24 C15       -10.9317   -8.6095    1.3134 C.2       1     POS1    0.0000
     25 C16       -11.1872   -7.3692    1.8941 C.2       1     POS1    0.0000
     26 C17       -12.3783   -6.6938    1.5991 C.2       1     POS1    0.0000
     27 C18       -13.3138   -7.2588    0.7251 C.2       1     POS1    0.0000
     28 C19       -13.0594   -8.4981    0.1437 C.2       1     POS1    0.0000
     29 H3        -13.7474   -8.9327   -0.5605 H         1     POS1    0.0000
     30 H4        -14.2206   -6.7271    0.4804 H         1     POS1    0.0000
     31 C20       -12.6803   -5.3811    2.1937 C.2       1     POS1    0.0000
     32 O8        -11.9113   -4.6367    2.8093 O.3       1     POS1    0.0000
     33 O9        -13.9768   -4.9718    2.0194 O.3       1     POS1    0.0000
     34 C21       -14.9983   -5.6993    2.7105 C.3       1     POS1    0.0000
     35 C22       -15.2010   -5.1912    4.1286 C.3       1     POS1    0.0000
     36 O10       -16.3738   -5.7429    4.7349 O.3       1     POS1    0.0000
     37 C23       -17.5709   -5.1364    4.4685 C.2       1     POS1    0.0000
     38 O11       -18.4377   -5.7863    3.8763 O.3       1     POS1    0.0000
     39 C24       -17.6573   -3.7424    4.9351 C.ar      1     POS1    0.0000
     40 C25       -18.4452   -2.8417    4.2053 C.ar      1     POS1    0.0000
     41 C26       -18.5483   -1.5154    4.6203 C.ar      1     POS1    0.0000
     42 C27       -17.8650   -1.0875    5.7622 C.ar      1     POS1    0.0000
     43 C28       -17.0767   -1.9877    6.4929 C.ar      1     POS1    0.0000
     44 C29       -16.9729   -3.3144    6.0802 C.ar      1     POS1    0.0000
     45 H5        -16.3814   -4.0138    6.6538 H         1     POS1    0.0000
     46 H6        -16.5967   -1.6839    7.4083 H         1     POS1    0.0000
     47 C30       -17.9486    0.3055    6.2329 C.2       1     POS1    0.0000
     48 O12       -17.8268    1.3329    5.5620 O.3       1     POS1    0.0000
     49 O13       -18.1781    0.4198    7.5808 O.3       1     POS1    0.0000
     50 C31       -19.4340   -0.0291    8.1000 C.3       1     POS1    0.0000
     51 C32       -19.3581   -1.5185    8.4053 C.3       1     POS1    0.0000
     52 O14       -20.4283   -1.9382    9.2568 O.3       1     POS1    0.0000
     53 C33       -20.6713   -3.2856    9.3500 C.2       1     POS1    0.0000
     54 O15       -20.6249   -3.8093   10.4669 O.3       1     POS1    0.0000
     55 C34       -20.9434   -3.9366    8.0597 C.2       1     POS1    0.0000
     56 C35       -21.0915   -5.3313    8.0361 C.2       1     POS1    0.0000
     57 C36       -21.3528   -5.9798    6.8320 C.2       1     POS1    0.0000
     58 C37       -21.4677   -5.2365    5.6505 C.2       1     POS1    0.0000
     59 C38       -21.3205   -3.8456    5.6723 C.2       1     POS1    0.0000
     60 C39       -21.0585   -3.1955    6.8780 C.2       1     POS1    0.0000
     61 H7        -20.9575   -2.1172    6.8997 H         1     POS1    0.0000
     62 H8        -21.4315   -3.2705    4.7671 H         1     POS1    0.0000
     63 C40       -21.7429   -5.9578    4.3963 C.2       1     POS1    0.0000
     64 O16       -21.6203   -7.1651    4.1759 O.3       1     POS1    0.0000
     65 O17       -22.1885   -5.1554    3.3763 O.3       1     POS1    0.0000
     66 C41       -21.3656   -5.0479    2.2076 C.3       1     POS1    0.0000
     67 C42       -21.7974   -3.8481    1.3728 C.3       1     POS1    0.0000
     68 O18       -21.8120   -2.6584    2.1344 O.3       1     POS1    0.0000
     69 H9        -21.0835   -2.6985    2.7769 H         1     POS1    0.0000
     70 H10       -22.8139   -4.0163    0.9487 H         1     POS1    0.0000
     71 H11       -21.0945   -3.7167    0.5184 H         1     POS1    0.0000
     72 H12       -21.7216   -5.9433    1.7051 H         1     POS1    0.0000
     73 H13       -20.2914   -5.0581    2.3374 H         1     POS1    0.0000
     74 H14       -21.4114   -7.0394    6.8923 H         1     POS1    0.0000
     75 H15       -20.7926   -5.8916    8.8807 H         1     POS1    0.0000
     76 H16       -18.3771   -1.7065    8.9050 H         1     POS1    0.0000
     77 H17       -19.3463   -2.1229    7.4743 H         1     POS1    0.0000
     78 H18       -20.2457    0.2025    7.3762 H         1     POS1    0.0000
     79 H19       -19.6761    0.5218    9.0401 H         1     POS1    0.0000
     80 H20       -19.1466   -0.8254    4.0458 H         1     POS1    0.0000
     81 H21       -18.9759   -3.1900    3.3274 H         1     POS1    0.0000
     82 H22       -15.2686   -4.0794    4.1315 H         1     POS1    0.0000
     83 H23       -14.3096   -5.4762    4.7339 H         1     POS1    0.0000
     84 H24       -14.6658   -6.7594    2.7800 H         1     POS1    0.0000
     85 H25       -15.9848   -5.6957    2.1949 H         1     POS1    0.0000
     86 H26       -10.5793   -7.0831    2.7190 H         1     POS1    0.0000
     87 H27       -10.2555   -9.2450    1.8796 H         1     POS1    0.0000
     88 H28       -10.9634  -11.4290    2.6103 H         1     POS1    0.0000
     89 H29       -11.6506  -12.5926    1.4667 H         1     POS1    0.0000
     90 H30        -9.4590  -13.1340    1.1409 H         1     POS1    0.0000
     91 H31        -9.0444  -11.5715    2.3117 H         1     POS1    0.0000
     92 H32        -6.6755  -12.7855    2.1789 H         1     POS1    0.0000
     93 H33        -4.6245  -13.3563    2.0097 H         1     POS1    0.0000
     94 H34        -3.1464  -13.9814   -1.9538 H         1     POS1    0.0000
     95 H35        -3.1336  -15.7468   -1.7312 H         1     POS1    0.0000
     96 H36        -5.6314  -15.8109   -1.9729 H         1     POS1    0.0000
     97 H37        -5.7067  -14.0191   -1.8722 H         1     POS1    0.0000
     98 H38        -5.6520  -14.4360   -3.9925 H         1     POS1    0.0000
@<TRIPOS>BOND
     1    1    2 1
     2    1   98 1
     3    2    3 1
     4    2   96 1
     5    2   97 1
     6    3    4 1
     7    3   94 1
     8    3   95 1
     9    4    5 1
    10    5    6 1
    11    5    7 1
    12    7    8 2
    13    7   12 1
    14    8    9 1
    15    8   93 1
    16    9   10 1
    17    9   92 1
    18   10   11 1
    19   10   15 1
    20   11   12 2
    21   11   14 1
    22   12   13 1
    23   15   16 1
    24   15   17 1
    25   17   18 1
    26   18   19 1
    27   18   90 1
    28   18   91 1
    29   19   20 1
    30   19   88 1
    31   19   89 1
    32   20   21 1
    33   21   22 1
    34   21   23 1
    35   23   24 2
    36   23   28 1
    37   24   25 2
    38   24   87 1
    39   25   26 1
    40   25   86 1
    41   26   27 1
    42   26   31 1
    43   27   28 2
    44   27   30 1
    45   28   29 1
    46   31   32 1
    47   31   33 1
    48   33   34 1
    49   34   35 1
    50   34   84 1
    51   34   85 1
    52   35   36 1
    53   35   82 1
    54   35   83 1
    55   36   37 1
    56   37   38 1
    57   37   39 1
    58   39   40 ar
    59   39   44 ar
    60   40   41 ar
    61   40   81 1
    62   41   42 ar
    63   41   80 1
    64   42   43 ar
    65   42   47 1
    66   43   44 ar
    67   43   46 1
    68   44   45 1
    69   47   48 1
    70   47   49 1
    71   49   50 1
    72   50   51 1
    73   50   78 1
    74   50   79 1
    75   51   52 1
    76   51   76 1
    77   51   77 1
    78   52   53 1
    79   53   54 1
    80   53   55 1
    81   55   56 1
    82   55   60 2
    83   56   57 2
    84   56   75 1
    85   57   58 1
    86   57   74 1
    87   58   59 1
    88   58   63 1
    89   59   60 2
    90   59   62 1
    91   60   61 1
    92   63   64 1
    93   63   65 1
    94   65   66 1
    95   66   67 1
    96   66   72 1
    97   66   73 1
    98   67   68 1
    99   67   70 1
   100   67   71 1
   101   68   69 1
@<TRIPOS>SUBSTRUCTURE
     1     POS1    1   GROUP 1   POS 1
