# Mol2 written by MVD (www.molegro.com)

#
# Pose information:
# Energy: -130.344
# RMSD: 11.7727
#
@<TRIPOS>MOLECULE
[03]PET_1
   98   101    1     0     0
SMALL
USER_CHARGES


@<TRIPOS>ATOM
      1 O1        -17.9206   -4.6452   13.4670 O.3       1     POS1    0.0000
      2 C1        -19.1544   -4.6004   12.7705 C.3       1     POS1    0.0000
      3 C2        -19.2733   -3.1904   12.2011 C.3       1     POS1    0.0000
      4 O2        -20.5454   -3.0185   11.5679 O.3       1     POS1    0.0000
      5 C3        -20.7915   -1.8192   10.9505 C.2       1     POS1    0.0000
      6 O3        -20.8545   -0.8029   11.6495 O.3       1     POS1    0.0000
      7 C4        -20.9544   -1.9184    9.4918 C.2       1     POS1    0.0000
      8 C5        -19.8696   -1.7356    8.6245 C.2       1     POS1    0.0000
      9 C6        -20.0604   -1.8376    7.2480 C.2       1     POS1    0.0000
     10 C7        -21.3328   -2.1206    6.7369 C.2       1     POS1    0.0000
     11 C8        -22.4170   -2.3039    7.6038 C.2       1     POS1    0.0000
     12 C9        -22.2276   -2.2017    8.9802 C.2       1     POS1    0.0000
     13 H1        -23.0590   -2.3809    9.6492 H         1     POS1    0.0000
     14 H2        -23.3696   -2.6410    7.2161 H         1     POS1    0.0000
     15 C10       -21.4950   -2.2196    5.2771 C.2       1     POS1    0.0000
     16 O4        -22.5259   -2.4667    4.6472 O.3       1     POS1    0.0000
     17 O5        -20.3384   -2.0062    4.5725 O.3       1     POS1    0.0000
     18 C11       -19.7928   -3.1093    3.8427 C.3       1     POS1    0.0000
     19 C12       -18.9911   -2.6032    2.6492 C.3       1     POS1    0.0000
     20 O6        -17.7479   -2.0522    3.0899 O.3       1     POS1    0.0000
     21 C13       -16.9415   -1.4691    2.1450 C.2       1     POS1    0.0000
     22 O7        -16.5593   -2.1604    1.1972 O.3       1     POS1    0.0000
     23 C14       -16.6362   -0.0540    2.4090 C.2       1     POS1    0.0000
     24 C15       -16.0878    0.3570    3.6303 C.2       1     POS1    0.0000
     25 C16       -15.8118    1.7052    3.8472 C.2       1     POS1    0.0000
     26 C17       -16.0842    2.6425    2.8427 C.2       1     POS1    0.0000
     27 C18       -16.6335    2.2323    1.6227 C.2       1     POS1    0.0000
     28 C19       -16.9093    0.8852    1.4046 C.2       1     POS1    0.0000
     29 H3        -17.2958    0.5434    0.4600 H         1     POS1    0.0000
     30 H4        -16.8214    2.9522    0.8408 H         1     POS1    0.0000
     31 C20       -15.8041    4.0749    3.0373 C.2       1     POS1    0.0000
     32 O8        -16.2247    5.0237    2.3685 O.3       1     POS1    0.0000
     33 O9        -14.9778    4.3454    4.0969 O.3       1     POS1    0.0000
     34 C21       -15.5746    4.8935    5.2775 C.3       1     POS1    0.0000
     35 C22       -15.3125    6.3849    5.4101 C.3       1     POS1    0.0000
     36 O10       -15.9847    6.9506    6.5394 O.3       1     POS1    0.0000
     37 C23       -16.3832    8.2564    6.4520 C.2       1     POS1    0.0000
     38 O11       -16.1458    8.8727    5.4088 O.3       1     POS1    0.0000
     39 C24       -17.0562    8.7633    7.6598 C.ar      1     POS1    0.0000
     40 C25       -17.3390    7.8614    8.6948 C.ar      1     POS1    0.0000
     41 C26       -17.9748    8.3090    9.8512 C.ar      1     POS1    0.0000
     42 C27       -18.3293    9.6555    9.9748 C.ar      1     POS1    0.0000
     43 C28       -18.0468   10.5584    8.9400 C.ar      1     POS1    0.0000
     44 C29       -17.4104   10.1131    7.7833 C.ar      1     POS1    0.0000
     45 H5        -17.1745   10.8121    6.9935 H         1     POS1    0.0000
     46 H6        -18.2592   11.6088    9.0509 H         1     POS1    0.0000
     47 C30       -19.0022   10.1672   11.1808 C.2       1     POS1    0.0000
     48 O12       -19.1732    9.5793   12.2511 O.3       1     POS1    0.0000
     49 O13       -19.4863   11.4435   11.0431 O.3       1     POS1    0.0000
     50 C31       -20.8749   11.6184   10.7435 C.3       1     POS1    0.0000
     51 C32       -21.1172   11.3464    9.2656 C.3       1     POS1    0.0000
     52 O14       -22.4162   10.7924    9.0366 O.3       1     POS1    0.0000
     53 C33       -22.7194   10.3982    7.7576 C.2       1     POS1    0.0000
     54 O15       -23.6498   10.9666    7.1788 O.3       1     POS1    0.0000
     55 C34       -21.8751    9.3061    7.2506 C.2       1     POS1    0.0000
     56 C35       -21.9395    8.0613    7.8941 C.2       1     POS1    0.0000
     57 C36       -21.1559    7.0046    7.4383 C.2       1     POS1    0.0000
     58 C37       -20.3079    7.1891    6.3388 C.2       1     POS1    0.0000
     59 C38       -20.2426    8.4297    5.6958 C.2       1     POS1    0.0000
     60 C39       -21.0271    9.4886    6.1521 C.2       1     POS1    0.0000
     61 H7        -20.9884   10.4464    5.6475 H         1     POS1    0.0000
     62 H8        -19.6074    8.5659    4.8354 H         1     POS1    0.0000
     63 C40       -19.4933    6.0484    5.8869 C.2       1     POS1    0.0000
     64 O16       -19.4282    4.9217    6.3841 O.3       1     POS1    0.0000
     65 O17       -18.7315    6.3111    4.7762 O.3       1     POS1    0.0000
     66 C41       -19.4149    6.4904    3.5291 C.3       1     POS1    0.0000
     67 C42       -18.4073    6.7233    2.4096 C.3       1     POS1    0.0000
     68 O18       -18.9692    6.4700    1.1384 O.3       1     POS1    0.0000
     69 H9        -19.9025    6.7413    1.1579 H         1     POS1    0.0000
     70 H10       -17.5169    6.0677    2.5465 H         1     POS1    0.0000
     71 H11       -18.0545    7.7797    2.4401 H         1     POS1    0.0000
     72 H12       -19.8761    7.4468    3.7604 H         1     POS1    0.0000
     73 H13       -20.1475    5.7492    3.2377 H         1     POS1    0.0000
     74 H14       -21.2324    6.1079    8.0038 H         1     POS1    0.0000
     75 H15       -22.4104    7.9975    8.8379 H         1     POS1    0.0000
     76 H16       -20.3315   10.6291    8.9256 H         1     POS1    0.0000
     77 H17       -20.9764   12.2635    8.6562 H         1     POS1    0.0000
     78 H18       -21.1968   12.6428   11.0324 H         1     POS1    0.0000
     79 H19       -21.4874   10.9076   11.3482 H         1     POS1    0.0000
     80 H20       -18.2004    7.6058   10.6379 H         1     POS1    0.0000
     81 H21       -17.0504    6.8226    8.5883 H         1     POS1    0.0000
     82 H22       -15.6320    6.9141    4.4835 H         1     POS1    0.0000
     83 H23       -14.2147    6.5390    5.5248 H         1     POS1    0.0000
     84 H24       -15.1048    4.3928    6.1537 H         1     POS1    0.0000
     85 H25       -16.6725    4.7251    5.3504 H         1     POS1    0.0000
     86 H26       -15.6209    2.0082    4.8490 H         1     POS1    0.0000
     87 H27       -16.2638   -0.2212    4.5338 H         1     POS1    0.0000
     88 H28       -19.8867   -2.1147    2.2769 H         1     POS1    0.0000
     89 H29       -18.7720   -3.4536    1.9621 H         1     POS1    0.0000
     90 H30       -20.5337   -3.6573    3.2032 H         1     POS1    0.0000
     91 H31       -18.8835   -3.5861    4.3238 H         1     POS1    0.0000
     92 H32       -19.4597   -2.7508    7.3607 H         1     POS1    0.0000
     93 H33       -18.8812   -1.5569    9.0343 H         1     POS1    0.0000
     94 H34       -18.4656   -3.0454   11.4464 H         1     POS1    0.0000
     95 H35       -19.1382   -2.4068   12.9649 H         1     POS1    0.0000
     96 H36       -19.9836   -4.8045   13.4850 H         1     POS1    0.0000
     97 H37       -19.2093   -5.3430   11.9563 H         1     POS1    0.0000
     98 H38       -17.6688   -5.5860   13.4531 H         1     POS1    0.0000
@<TRIPOS>BOND
     1    1    2 1
     2    1   98 1
     3    2    3 1
     4    2   96 1
     5    2   97 1
     6    3    4 1
     7    3   94 1
     8    3   95 1
     9    4    5 1
    10    5    6 1
    11    5    7 1
    12    7    8 2
    13    7   12 1
    14    8    9 1
    15    8   93 1
    16    9   10 1
    17    9   92 1
    18   10   11 1
    19   10   15 1
    20   11   12 2
    21   11   14 1
    22   12   13 1
    23   15   16 1
    24   15   17 1
    25   17   18 1
    26   18   19 1
    27   18   90 1
    28   18   91 1
    29   19   20 1
    30   19   88 1
    31   19   89 1
    32   20   21 1
    33   21   22 1
    34   21   23 1
    35   23   24 2
    36   23   28 1
    37   24   25 2
    38   24   87 1
    39   25   26 1
    40   25   86 1
    41   26   27 1
    42   26   31 1
    43   27   28 2
    44   27   30 1
    45   28   29 1
    46   31   32 1
    47   31   33 1
    48   33   34 1
    49   34   35 1
    50   34   84 1
    51   34   85 1
    52   35   36 1
    53   35   82 1
    54   35   83 1
    55   36   37 1
    56   37   38 1
    57   37   39 1
    58   39   40 ar
    59   39   44 ar
    60   40   41 ar
    61   40   81 1
    62   41   42 ar
    63   41   80 1
    64   42   43 ar
    65   42   47 1
    66   43   44 ar
    67   43   46 1
    68   44   45 1
    69   47   48 1
    70   47   49 1
    71   49   50 1
    72   50   51 1
    73   50   78 1
    74   50   79 1
    75   51   52 1
    76   51   76 1
    77   51   77 1
    78   52   53 1
    79   53   54 1
    80   53   55 1
    81   55   56 1
    82   55   60 2
    83   56   57 2
    84   56   75 1
    85   57   58 1
    86   57   74 1
    87   58   59 1
    88   58   63 1
    89   59   60 2
    90   59   62 1
    91   60   61 1
    92   63   64 1
    93   63   65 1
    94   65   66 1
    95   66   67 1
    96   66   72 1
    97   66   73 1
    98   67   68 1
    99   67   70 1
   100   67   71 1
   101   68   69 1
@<TRIPOS>SUBSTRUCTURE
     1     POS1    1   GROUP 1   POS 1
