# Mol2 written by MVD (www.molegro.com)

#
# Pose information:
# Energy: -150.447
# RMSD: 10.1311
#
@<TRIPOS>MOLECULE
[05]PET_1
   98   101    1     0     0
SMALL
USER_CHARGES


@<TRIPOS>ATOM
      1 O1        -13.3790   14.8070    8.2560 O.3       1     POS1    0.0000
      2 C1        -13.1879   13.4026    8.2310 C.3       1     POS1    0.0000
      3 C2        -13.5062   12.9528    6.8087 C.3       1     POS1    0.0000
      4 O2        -14.8132   13.3969    6.4306 O.3       1     POS1    0.0000
      5 C3        -15.8706   12.9933    7.2048 C.2       1     POS1    0.0000
      6 O3        -16.4282   13.8335    7.9181 O.3       1     POS1    0.0000
      7 C4        -16.1993   11.5655    7.0732 C.2       1     POS1    0.0000
      8 C5        -16.7711   10.8498    8.1331 C.2       1     POS1    0.0000
      9 C6        -17.0701    9.4984    7.9728 C.2       1     POS1    0.0000
     10 C7        -16.7980    8.8609    6.7563 C.2       1     POS1    0.0000
     11 C8        -16.2271    9.5763    5.6967 C.2       1     POS1    0.0000
     12 C9        -15.9272   10.9275    5.8559 C.2       1     POS1    0.0000
     13 H1        -15.5210   11.4869    5.0234 H         1     POS1    0.0000
     14 H2        -16.1300    9.1157    4.7221 H         1     POS1    0.0000
     15 C10       -17.1272    7.4320    6.6254 C.2       1     POS1    0.0000
     16 O4        -17.1007    6.5677    7.5046 O.3       1     POS1    0.0000
     17 O5        -17.5015    7.0605    5.3599 O.3       1     POS1    0.0000
     18 C11       -16.5981    6.2377    4.6155 C.3       1     POS1    0.0000
     19 C12       -17.2244    5.8441    3.2828 C.3       1     POS1    0.0000
     20 O6        -16.2998    5.0712    2.5141 O.3       1     POS1    0.0000
     21 C13       -16.7658    4.4819    1.3657 C.2       1     POS1    0.0000
     22 O7        -17.3342    5.1939    0.5338 O.3       1     POS1    0.0000
     23 C14       -16.5136    3.0341    1.2906 C.2       1     POS1    0.0000
     24 C15       -16.3220    2.3911    0.0613 C.2       1     POS1    0.0000
     25 C16       -16.0863    1.0184    0.0267 C.2       1     POS1    0.0000
     26 C17       -16.0421    0.2887    1.2213 C.2       1     POS1    0.0000
     27 C18       -16.2347    0.9307    2.4498 C.2       1     POS1    0.0000
     28 C19       -16.4700    2.3025    2.4858 C.2       1     POS1    0.0000
     29 H3        -16.5826    2.8222    3.4215 H         1     POS1    0.0000
     30 H4        -16.1774    0.3715    3.3712 H         1     POS1    0.0000
     31 C20       -15.7940   -1.1627    1.2220 C.2       1     POS1    0.0000
     32 O8        -15.0950   -1.8090    0.4358 O.3       1     POS1    0.0000
     33 O9        -16.4290   -1.8393    2.2308 O.3       1     POS1    0.0000
     34 C21       -15.6207   -2.6370    3.1028 C.3       1     POS1    0.0000
     35 C22       -14.7160   -1.7866    3.9797 C.3       1     POS1    0.0000
     36 O10       -15.4573   -1.0243    4.9371 O.3       1     POS1    0.0000
     37 C23       -16.1151   -1.7096    5.9216 C.2       1     POS1    0.0000
     38 O11       -15.4446   -2.2627    6.7985 O.3       1     POS1    0.0000
     39 C24       -17.5816   -1.6972    5.7880 C.ar      1     POS1    0.0000
     40 C25       -18.3495   -2.2840    6.8033 C.ar      1     POS1    0.0000
     41 C26       -19.7396   -2.2888    6.7073 C.ar      1     POS1    0.0000
     42 C27       -20.3637   -1.7096    5.5987 C.ar      1     POS1    0.0000
     43 C28       -19.5964   -1.1223    4.5827 C.ar      1     POS1    0.0000
     44 C29       -18.2063   -1.1157    4.6770 C.ar      1     POS1    0.0000
     45 H5        -17.6148   -0.6459    3.9041 H         1     POS1    0.0000
     46 H6        -20.0686   -0.6187    3.7556 H         1     POS1    0.0000
     47 C30       -21.8299   -1.6945    5.4607 C.2       1     POS1    0.0000
     48 O12       -22.5182   -0.8691    4.8563 O.3       1     POS1    0.0000
     49 O13       -22.4556   -2.7313    6.1056 O.3       1     POS1    0.0000
     50 C31       -22.3712   -4.0409    5.5345 C.3       1     POS1    0.0000
     51 C32       -20.9138   -4.4744    5.4628 C.3       1     POS1    0.0000
     52 O14       -20.6621   -5.2930    4.3168 O.3       1     POS1    0.0000
     53 C33       -20.4388   -4.6566    3.1216 C.2       1     POS1    0.0000
     54 O15       -19.4786   -3.8847    3.0440 O.3       1     POS1    0.0000
     55 C34       -21.4196   -4.9835    2.0757 C.2       1     POS1    0.0000
     56 C35       -22.6025   -4.2320    2.0143 C.2       1     POS1    0.0000
     57 C36       -23.5513   -4.5128    1.0348 C.2       1     POS1    0.0000
     58 C37       -23.3198   -5.5433    0.1149 C.2       1     POS1    0.0000
     59 C38       -22.1406   -6.2935    0.1746 C.2       1     POS1    0.0000
     60 C39       -21.1900   -6.0129    1.1556 C.2       1     POS1    0.0000
     61 H7        -20.2700   -6.5836    1.1955 H         1     POS1    0.0000
     62 H8        -21.9514   -7.0716   -0.5473 H         1     POS1    0.0000
     63 C40       -24.3473   -5.8116   -0.9055 C.2       1     POS1    0.0000
     64 O16       -24.1899   -6.3006   -2.0268 O.3       1     POS1    0.0000
     65 O17       -25.6184   -5.4633   -0.5236 O.3       1     POS1    0.0000
     66 C41       -26.3031   -4.4808   -1.3114 C.3       1     POS1    0.0000
     67 C42       -27.6288   -4.1152   -0.6543 C.3       1     POS1    0.0000
     68 O18       -27.4542   -3.7139    0.6889 O.3       1     POS1    0.0000
     69 H9        -26.6103   -3.2362    0.7574 H         1     POS1    0.0000
     70 H10       -28.3280   -4.9822   -0.6829 H         1     POS1    0.0000
     71 H11       -28.1056   -3.2804   -1.2174 H         1     POS1    0.0000
     72 H12       -26.5234   -5.1168   -2.1646 H         1     POS1    0.0000
     73 H13       -25.7602   -3.5907   -1.6011 H         1     POS1    0.0000
     74 H14       -24.4362   -3.9258    1.0807 H         1     POS1    0.0000
     75 H15       -22.8584   -3.6137    2.8321 H         1     POS1    0.0000
     76 H16       -20.6899   -5.0458    6.3959 H         1     POS1    0.0000
     77 H17       -20.2300   -3.6000    5.4697 H         1     POS1    0.0000
     78 H18       -22.8529   -4.0470    4.5323 H         1     POS1    0.0000
     79 H19       -22.9353   -4.7686    6.1656 H         1     POS1    0.0000
     80 H20       -20.3230   -2.7538    7.4869 H         1     POS1    0.0000
     81 H21       -17.8521   -2.7213    7.6606 H         1     POS1    0.0000
     82 H22       -14.1061   -1.1001    3.3493 H         1     POS1    0.0000
     83 H23       -14.0131   -2.4633    4.5183 H         1     POS1    0.0000
     84 H24       -14.9660   -3.2724    2.4648 H         1     POS1    0.0000
     85 H25       -16.2026   -3.3198    3.7618 H         1     POS1    0.0000
     86 H26       -16.1783    0.5322   -0.9151 H         1     POS1    0.0000
     87 H27       -16.7593    2.7995   -0.8462 H         1     POS1    0.0000
     88 H28       -17.5616    6.8688    3.1585 H         1     POS1    0.0000
     89 H29       -18.1305    5.2212    3.4684 H         1     POS1    0.0000
     90 H30       -16.5275    5.1779    4.9764 H         1     POS1    0.0000
     91 H31       -15.7520    6.8033    4.1157 H         1     POS1    0.0000
     92 H32       -18.1090    9.8537    8.0174 H         1     POS1    0.0000
     93 H33       -17.0142   11.3645    9.0566 H         1     POS1    0.0000
     94 H34       -13.4736   11.8388    6.7754 H         1     POS1    0.0000
     95 H35       -12.7714   13.3140    6.0702 H         1     POS1    0.0000
     96 H36       -13.8858   12.9271    8.9565 H         1     POS1    0.0000
     97 H37       -12.1585   13.1095    8.4989 H         1     POS1    0.0000
     98 H38       -12.8022   15.1169    8.9771 H         1     POS1    0.0000
@<TRIPOS>BOND
     1    1    2 1
     2    1   98 1
     3    2    3 1
     4    2   96 1
     5    2   97 1
     6    3    4 1
     7    3   94 1
     8    3   95 1
     9    4    5 1
    10    5    6 1
    11    5    7 1
    12    7    8 2
    13    7   12 1
    14    8    9 1
    15    8   93 1
    16    9   10 1
    17    9   92 1
    18   10   11 1
    19   10   15 1
    20   11   12 2
    21   11   14 1
    22   12   13 1
    23   15   16 1
    24   15   17 1
    25   17   18 1
    26   18   19 1
    27   18   90 1
    28   18   91 1
    29   19   20 1
    30   19   88 1
    31   19   89 1
    32   20   21 1
    33   21   22 1
    34   21   23 1
    35   23   24 2
    36   23   28 1
    37   24   25 2
    38   24   87 1
    39   25   26 1
    40   25   86 1
    41   26   27 1
    42   26   31 1
    43   27   28 2
    44   27   30 1
    45   28   29 1
    46   31   32 1
    47   31   33 1
    48   33   34 1
    49   34   35 1
    50   34   84 1
    51   34   85 1
    52   35   36 1
    53   35   82 1
    54   35   83 1
    55   36   37 1
    56   37   38 1
    57   37   39 1
    58   39   40 ar
    59   39   44 ar
    60   40   41 ar
    61   40   81 1
    62   41   42 ar
    63   41   80 1
    64   42   43 ar
    65   42   47 1
    66   43   44 ar
    67   43   46 1
    68   44   45 1
    69   47   48 1
    70   47   49 1
    71   49   50 1
    72   50   51 1
    73   50   78 1
    74   50   79 1
    75   51   52 1
    76   51   76 1
    77   51   77 1
    78   52   53 1
    79   53   54 1
    80   53   55 1
    81   55   56 1
    82   55   60 2
    83   56   57 2
    84   56   75 1
    85   57   58 1
    86   57   74 1
    87   58   59 1
    88   58   63 1
    89   59   60 2
    90   59   62 1
    91   60   61 1
    92   63   64 1
    93   63   65 1
    94   65   66 1
    95   66   67 1
    96   66   72 1
    97   66   73 1
    98   67   68 1
    99   67   70 1
   100   67   71 1
   101   68   69 1
@<TRIPOS>SUBSTRUCTURE
     1     POS1    1   GROUP 1   POS 1
