# Mol2 written by MVD (www.molegro.com)

#
# Pose information:
# Energy: -108.948
# RMSD: 13.8404
#
@<TRIPOS>MOLECULE
[06]PET_1
   98   101    1     0     0
SMALL
USER_CHARGES


@<TRIPOS>ATOM
      1 O1        -24.3397  -13.9786   -0.8602 O.3       1     POS1    0.0000
      2 C1        -24.4947  -14.6913    0.3553 C.3       1     POS1    0.0000
      3 C2        -23.5134  -14.0697    1.3439 C.3       1     POS1    0.0000
      4 O2        -22.1687  -14.2611    0.8923 O.3       1     POS1    0.0000
      5 C3        -21.1754  -13.5773    1.5449 C.2       1     POS1    0.0000
      6 O3        -20.9581  -13.8498    2.7298 O.3       1     POS1    0.0000
      7 C4        -20.4881  -12.5786    0.7116 C.2       1     POS1    0.0000
      8 C5        -19.5981  -11.6527    1.2710 C.2       1     POS1    0.0000
      9 C6        -18.9641  -10.7211    0.4514 C.2       1     POS1    0.0000
     10 C7        -19.2186  -10.7125   -0.9253 C.2       1     POS1    0.0000
     11 C8        -20.1077  -11.6383   -1.4847 C.2       1     POS1    0.0000
     12 C9        -20.7426  -12.5699   -0.6661 C.2       1     POS1    0.0000
     13 H1        -21.4002  -13.3081   -1.1060 H         1     POS1    0.0000
     14 H2        -20.2105  -11.7095   -2.5597 H         1     POS1    0.0000
     15 C10       -18.5305   -9.7127   -1.7585 C.2       1     POS1    0.0000
     16 O4        -18.8646   -9.2982   -2.8708 O.3       1     POS1    0.0000
     17 O5        -17.3870   -9.2093   -1.1939 O.3       1     POS1    0.0000
     18 C11       -16.8833   -9.8594   -0.0231 C.3       1     POS1    0.0000
     19 C12       -16.3708   -8.8246    0.9717 C.3       1     POS1    0.0000
     20 O6        -15.8896   -9.4727    2.1515 O.3       1     POS1    0.0000
     21 C13       -16.1469   -8.8694    3.3569 C.2       1     POS1    0.0000
     22 O7        -16.8233   -9.4851    4.1849 O.3       1     POS1    0.0000
     23 C14       -15.5602   -7.5266    3.4919 C.2       1     POS1    0.0000
     24 C15       -16.1505   -6.5527    4.3068 C.2       1     POS1    0.0000
     25 C16       -15.5687   -5.2910    4.4110 C.2       1     POS1    0.0000
     26 C17       -14.3967   -5.0033    3.7001 C.2       1     POS1    0.0000
     27 C18       -13.8074   -5.9760    2.8846 C.2       1     POS1    0.0000
     28 C19       -14.3875   -7.2373    2.7800 C.2       1     POS1    0.0000
     29 H3        -13.9299   -8.0117    2.1890 H         1     POS1    0.0000
     30 H4        -12.8916   -5.7608    2.3555 H         1     POS1    0.0000
     31 C20       -13.7544   -3.6813    3.7877 C.2       1     POS1    0.0000
     32 O8        -12.6030   -3.3787    3.4606 O.3       1     POS1    0.0000
     33 O9        -14.5635   -2.6976    4.2942 O.3       1     POS1    0.0000
     34 C21       -14.3820   -2.3341    5.6672 C.3       1     POS1    0.0000
     35 C22       -15.6728   -1.8450    6.3038 C.3       1     POS1    0.0000
     36 O10       -16.1683   -0.6604    5.6726 O.3       1     POS1    0.0000
     37 C23       -17.4792   -0.3303    5.8828 C.2       1     POS1    0.0000
     38 O11       -17.7305    0.7317    6.4603 O.3       1     POS1    0.0000
     39 C24       -18.4398   -1.3269    5.3800 C.ar      1     POS1    0.0000
     40 C25       -19.5018   -0.8855    4.5787 C.ar      1     POS1    0.0000
     41 C26       -20.4280   -1.8030    4.0867 C.ar      1     POS1    0.0000
     42 C27       -20.2956   -3.1601    4.3946 C.ar      1     POS1    0.0000
     43 C28       -19.2336   -3.6025    5.1960 C.ar      1     POS1    0.0000
     44 C29       -18.3059   -2.6869    5.6883 C.ar      1     POS1    0.0000
     45 H5        -17.4759   -3.0294    6.2897 H         1     POS1    0.0000
     46 H6        -19.0870   -4.6525    5.3875 H         1     POS1    0.0000
     47 C30       -21.2535   -4.1605    3.8938 C.2       1     POS1    0.0000
     48 O12       -21.6994   -4.2650    2.7490 O.3       1     POS1    0.0000
     49 O13       -21.6764   -5.0474    4.8514 O.3       1     POS1    0.0000
     50 C31       -21.3923   -6.4380    4.6671 C.3       1     POS1    0.0000
     51 C32       -19.8868   -6.6449    4.5788 C.3       1     POS1    0.0000
     52 O14       -19.5513   -7.7039    3.6773 O.3       1     POS1    0.0000
     53 C33       -19.6175   -7.4353    2.3332 C.2       1     POS1    0.0000
     54 O15       -18.8148   -6.6246    1.8617 O.3       1     POS1    0.0000
     55 C34       -20.6829   -8.1634    1.6279 C.2       1     POS1    0.0000
     56 C35       -20.8190   -7.9692    0.2453 C.2       1     POS1    0.0000
     57 C36       -21.8152   -8.6450   -0.4543 C.2       1     POS1    0.0000
     58 C37       -22.6757   -9.5164    0.2254 C.2       1     POS1    0.0000
     59 C38       -22.5412   -9.7114    1.6040 C.2       1     POS1    0.0000
     60 C39       -21.5437   -9.0345    2.3054 C.2       1     POS1    0.0000
     61 H7        -21.4289   -9.1942    3.3707 H         1     POS1    0.0000
     62 H8        -23.1884  -10.3994    2.1239 H         1     POS1    0.0000
     63 C40       -23.7180  -10.2120   -0.5483 C.2       1     POS1    0.0000
     64 O16       -23.5648  -11.0361   -1.4530 O.3       1     POS1    0.0000
     65 O17       -24.9989   -9.8768   -0.1879 O.3       1     POS1    0.0000
     66 C41       -25.8499  -10.9254    0.2924 C.3       1     POS1    0.0000
     67 C42       -25.3973  -11.3731    1.6772 C.3       1     POS1    0.0000
     68 O18       -25.6011  -10.3651    2.6458 O.3       1     POS1    0.0000
     69 H9        -26.4140   -9.8831    2.4181 H         1     POS1    0.0000
     70 H10       -24.3170  -11.6453    1.6630 H         1     POS1    0.0000
     71 H11       -25.9684  -12.2804    1.9803 H         1     POS1    0.0000
     72 H12       -25.5421  -11.6891   -0.4168 H         1     POS1    0.0000
     73 H13       -26.9197  -10.7637    0.2722 H         1     POS1    0.0000
     74 H14       -21.8777   -8.4130   -1.4897 H         1     POS1    0.0000
     75 H15       -20.3140   -7.1599   -0.2094 H         1     POS1    0.0000
     76 H16       -19.5233   -6.8892    5.6061 H         1     POS1    0.0000
     77 H17       -19.3656   -5.7096    4.2858 H         1     POS1    0.0000
     78 H18       -21.9138   -6.8123    3.7592 H         1     POS1    0.0000
     79 H19       -21.7890   -7.0252    5.5295 H         1     POS1    0.0000
     80 H20       -21.2498   -1.4535    3.4811 H         1     POS1    0.0000
     81 H21       -19.5864    0.1682    4.3414 H         1     POS1    0.0000
     82 H22       -15.5153   -1.6502    7.3890 H         1     POS1    0.0000
     83 H23       -16.4359   -2.6522    6.2135 H         1     POS1    0.0000
     84 H24       -13.6548   -1.4918    5.6974 H         1     POS1    0.0000
     85 H25       -13.9686   -3.1503    6.3013 H         1     POS1    0.0000
     86 H26       -16.1581   -4.5171    4.8417 H         1     POS1    0.0000
     87 H27       -17.2185   -6.5778    4.5073 H         1     POS1    0.0000
     88 H28       -17.2723   -8.2428    0.8044 H         1     POS1    0.0000
     89 H29       -15.5258   -8.2581    0.5154 H         1     POS1    0.0000
     90 H30       -15.8771  -10.3382   -0.1520 H         1     POS1    0.0000
     91 H31       -17.6843  -10.2304    0.6885 H         1     POS1    0.0000
     92 H32       -18.0677  -11.3097    0.6912 H         1     POS1    0.0000
     93 H33       -19.3785  -11.6956    2.3326 H         1     POS1    0.0000
     94 H34       -23.6431  -14.5703    2.3317 H         1     POS1    0.0000
     95 H35       -23.6928  -12.9942    1.5072 H         1     POS1    0.0000
     96 H36       -24.2489  -15.7635    0.1827 H         1     POS1    0.0000
     97 H37       -25.5217  -14.6322    0.7541 H         1     POS1    0.0000
     98 H38       -25.1978  -14.0779   -1.3100 H         1     POS1    0.0000
@<TRIPOS>BOND
     1    1    2 1
     2    1   98 1
     3    2    3 1
     4    2   96 1
     5    2   97 1
     6    3    4 1
     7    3   94 1
     8    3   95 1
     9    4    5 1
    10    5    6 1
    11    5    7 1
    12    7    8 2
    13    7   12 1
    14    8    9 1
    15    8   93 1
    16    9   10 1
    17    9   92 1
    18   10   11 1
    19   10   15 1
    20   11   12 2
    21   11   14 1
    22   12   13 1
    23   15   16 1
    24   15   17 1
    25   17   18 1
    26   18   19 1
    27   18   90 1
    28   18   91 1
    29   19   20 1
    30   19   88 1
    31   19   89 1
    32   20   21 1
    33   21   22 1
    34   21   23 1
    35   23   24 2
    36   23   28 1
    37   24   25 2
    38   24   87 1
    39   25   26 1
    40   25   86 1
    41   26   27 1
    42   26   31 1
    43   27   28 2
    44   27   30 1
    45   28   29 1
    46   31   32 1
    47   31   33 1
    48   33   34 1
    49   34   35 1
    50   34   84 1
    51   34   85 1
    52   35   36 1
    53   35   82 1
    54   35   83 1
    55   36   37 1
    56   37   38 1
    57   37   39 1
    58   39   40 ar
    59   39   44 ar
    60   40   41 ar
    61   40   81 1
    62   41   42 ar
    63   41   80 1
    64   42   43 ar
    65   42   47 1
    66   43   44 ar
    67   43   46 1
    68   44   45 1
    69   47   48 1
    70   47   49 1
    71   49   50 1
    72   50   51 1
    73   50   78 1
    74   50   79 1
    75   51   52 1
    76   51   76 1
    77   51   77 1
    78   52   53 1
    79   53   54 1
    80   53   55 1
    81   55   56 1
    82   55   60 2
    83   56   57 2
    84   56   75 1
    85   57   58 1
    86   57   74 1
    87   58   59 1
    88   58   63 1
    89   59   60 2
    90   59   62 1
    91   60   61 1
    92   63   64 1
    93   63   65 1
    94   65   66 1
    95   66   67 1
    96   66   72 1
    97   66   73 1
    98   67   68 1
    99   67   70 1
   100   67   71 1
   101   68   69 1
@<TRIPOS>SUBSTRUCTURE
     1     POS1    1   GROUP 1   POS 1
