# Mol2 written by MVD (www.molegro.com)

#
# Pose information:
# Energy: -145.886
# RMSD: 14.2698
#
@<TRIPOS>MOLECULE
[07]PET_1
   98   101    1     0     0
SMALL
USER_CHARGES


@<TRIPOS>ATOM
      1 O1        -15.4199  -17.7023    1.2203 O.3       1     POS1    0.0000
      2 C1        -14.3544  -17.9526    2.1212 C.3       1     POS1    0.0000
      3 C2        -13.2126  -17.0334    1.6993 C.3       1     POS1    0.0000
      4 O2        -12.8684  -17.2691    0.3302 O.3       1     POS1    0.0000
      5 C3        -11.7841  -16.6002   -0.1771 C.2       1     POS1    0.0000
      6 O3        -11.6169  -16.5990   -1.4008 O.3       1     POS1    0.0000
      7 C4        -10.9429  -15.9597    0.8457 C.2       1     POS1    0.0000
      8 C5        -10.2041  -14.8040    0.5607 C.2       1     POS1    0.0000
      9 C6         -9.4184  -14.2234    1.5542 C.2       1     POS1    0.0000
     10 C7         -9.3687  -14.7959    2.8310 C.2       1     POS1    0.0000
     11 C8        -10.1076  -15.9505    3.1161 C.2       1     POS1    0.0000
     12 C9        -10.8932  -16.5323    2.1235 C.2       1     POS1    0.0000
     13 H1        -11.4923  -17.4026    2.3570 H         1     POS1    0.0000
     14 H2        -10.1639  -16.3207    4.1316 H         1     POS1    0.0000
     15 C10        -8.5266  -14.1542    3.8539 C.2       1     POS1    0.0000
     16 O4         -7.8141  -13.1557    3.7273 O.3       1     POS1    0.0000
     17 O5         -8.5678  -14.7724    5.0770 O.3       1     POS1    0.0000
     18 C11        -9.2943  -14.1229    6.1246 C.3       1     POS1    0.0000
     19 C12       -10.7911  -14.3412    5.9380 C.3       1     POS1    0.0000
     20 O6        -11.2490  -13.6433    4.7775 O.3       1     POS1    0.0000
     21 C13       -12.4218  -12.9386    4.8822 C.2       1     POS1    0.0000
     22 O7        -13.3126  -13.3922    5.6052 O.3       1     POS1    0.0000
     23 C14       -12.4497  -11.7008    4.0867 C.2       1     POS1    0.0000
     24 C15       -13.5645  -10.8533    4.0976 C.2       1     POS1    0.0000
     25 C16       -13.5576   -9.6895    3.3317 C.2       1     POS1    0.0000
     26 C17       -12.4359   -9.3733    2.5549 C.2       1     POS1    0.0000
     27 C18       -11.3223  -10.2207    2.5429 C.2       1     POS1    0.0000
     28 C19       -11.3277  -11.3838    3.3081 C.2       1     POS1    0.0000
     29 H3        -10.4674  -12.0294    3.3432 H         1     POS1    0.0000
     30 H4        -10.4494   -9.9643    1.9621 H         1     POS1    0.0000
     31 C20       -12.3938   -8.1512    1.7347 C.2       1     POS1    0.0000
     32 O8        -12.5925   -8.0503    0.5203 O.3       1     POS1    0.0000
     33 O9        -12.0991   -7.0131    2.4394 O.3       1     POS1    0.0000
     34 C21       -13.1919   -6.1704    2.8213 C.3       1     POS1    0.0000
     35 C22       -12.7856   -4.7076    2.8970 C.3       1     POS1    0.0000
     36 O10       -13.8899   -3.8591    3.2251 O.3       1     POS1    0.0000
     37 C23       -14.9119   -3.7693    2.3200 C.2       1     POS1    0.0000
     38 O11       -15.3365   -2.6480    2.0253 O.3       1     POS1    0.0000
     39 C24       -15.3834   -5.0688    1.8124 C.ar      1     POS1    0.0000
     40 C25       -16.2166   -5.8430    2.6316 C.ar      1     POS1    0.0000
     41 C26       -16.6803   -7.0774    2.1810 C.ar      1     POS1    0.0000
     42 C27       -16.3122   -7.5399    0.9142 C.ar      1     POS1    0.0000
     43 C28       -15.4789   -6.7661    0.0941 C.ar      1     POS1    0.0000
     44 C29       -15.0148   -5.5312    0.5423 C.ar      1     POS1    0.0000
     45 H5        -14.3885   -4.9252   -0.0968 H         1     POS1    0.0000
     46 H6        -15.2402   -7.0843   -0.9071 H         1     POS1    0.0000
     47 C30       -16.7814   -8.8386    0.4021 C.2       1     POS1    0.0000
     48 O12       -17.5904   -9.0388   -0.5066 O.3       1     POS1    0.0000
     49 O13       -16.2355   -9.9174    1.0505 O.3       1     POS1    0.0000
     50 C31       -17.1140  -10.9350    1.5416 C.3       1     POS1    0.0000
     51 C32       -16.3205  -11.9442    2.3597 C.3       1     POS1    0.0000
     52 O14       -16.8560  -13.2647    2.2328 O.3       1     POS1    0.0000
     53 C33       -16.1106  -14.1858    1.5405 C.2       1     POS1    0.0000
     54 O15       -16.5252  -15.3472    1.4861 O.3       1     POS1    0.0000
     55 C34       -14.8745  -13.6416    0.9587 C.2       1     POS1    0.0000
     56 C35       -14.9166  -13.1516   -0.3550 C.2       1     POS1    0.0000
     57 C36       -13.7652  -12.6267   -0.9357 C.2       1     POS1    0.0000
     58 C37       -12.5708  -12.5891   -0.2051 C.2       1     POS1    0.0000
     59 C38       -12.5271  -13.0771    1.1051 C.2       1     POS1    0.0000
     60 C39       -13.6800  -13.6033    1.6873 C.2       1     POS1    0.0000
     61 H7        -13.6519  -13.9695    2.7064 H         1     POS1    0.0000
     62 H8        -11.6138  -13.0276    1.6760 H         1     POS1    0.0000
     63 C40       -11.3735  -12.0280   -0.8537 C.2       1     POS1    0.0000
     64 O16       -10.3561  -11.5887   -0.3124 O.3       1     POS1    0.0000
     65 O17       -11.4365  -12.0114   -2.2243 O.3       1     POS1    0.0000
     66 C41       -11.4360  -10.7337   -2.8740 C.3       1     POS1    0.0000
     67 C42       -10.0279  -10.3857   -3.3418 C.3       1     POS1    0.0000
     68 O18        -9.9782   -9.1113   -3.9496 O.3       1     POS1    0.0000
     69 H9        -10.6080   -8.5299   -3.4911 H         1     POS1    0.0000
     70 H10        -9.6619  -11.1458   -4.0695 H         1     POS1    0.0000
     71 H11        -9.3336  -10.3931   -2.4705 H         1     POS1    0.0000
     72 H12       -11.6485  -10.1314   -1.9947 H         1     POS1    0.0000
     73 H13       -12.1558  -10.5627   -3.6636 H         1     POS1    0.0000
     74 H14       -13.8704  -12.3137   -1.9460 H         1     POS1    0.0000
     75 H15       -15.7527  -13.3804   -0.9594 H         1     POS1    0.0000
     76 H16       -16.3639  -11.6161    3.4264 H         1     POS1    0.0000
     77 H17       -15.2458  -11.9356    2.0821 H         1     POS1    0.0000
     78 H18       -17.6434  -11.4185    0.6917 H         1     POS1    0.0000
     79 H19       -17.8993  -10.4793    2.1909 H         1     POS1    0.0000
     80 H20       -17.3109   -7.6730    2.8227 H         1     POS1    0.0000
     81 H21       -16.5004   -5.4675    3.6074 H         1     POS1    0.0000
     82 H22       -12.3415   -4.3826    1.9286 H         1     POS1    0.0000
     83 H23       -11.9999   -4.6022    3.6803 H         1     POS1    0.0000
     84 H24       -13.5138   -6.4807    3.8408 H         1     POS1    0.0000
     85 H25       -14.0805   -6.2510    2.1557 H         1     POS1    0.0000
     86 H26       -14.4902   -9.2002    3.1810 H         1     POS1    0.0000
     87 H27       -14.5537  -11.2495    4.3120 H         1     POS1    0.0000
     88 H28       -10.9362  -14.1273    6.9926 H         1     POS1    0.0000
     89 H29       -10.9922  -15.4284    5.7934 H         1     POS1    0.0000
     90 H30        -9.3712  -13.0089    6.0174 H         1     POS1    0.0000
     91 H31        -9.2799  -14.6729    7.1160 H         1     POS1    0.0000
     92 H32       -10.1684  -13.4221    1.5014 H         1     POS1    0.0000
     93 H33       -10.2825  -14.3472   -0.4202 H         1     POS1    0.0000
     94 H34       -12.3283  -17.2514    2.3424 H         1     POS1    0.0000
     95 H35       -13.4491  -15.9653    1.8364 H         1     POS1    0.0000
     96 H36       -14.0486  -19.0198    2.0361 H         1     POS1    0.0000
     97 H37       -14.6308  -17.7550    3.1710 H         1     POS1    0.0000
     98 H38       -16.2204  -17.9463    1.7186 H         1     POS1    0.0000
@<TRIPOS>BOND
     1    1    2 1
     2    1   98 1
     3    2    3 1
     4    2   96 1
     5    2   97 1
     6    3    4 1
     7    3   94 1
     8    3   95 1
     9    4    5 1
    10    5    6 1
    11    5    7 1
    12    7    8 2
    13    7   12 1
    14    8    9 1
    15    8   93 1
    16    9   10 1
    17    9   92 1
    18   10   11 1
    19   10   15 1
    20   11   12 2
    21   11   14 1
    22   12   13 1
    23   15   16 1
    24   15   17 1
    25   17   18 1
    26   18   19 1
    27   18   90 1
    28   18   91 1
    29   19   20 1
    30   19   88 1
    31   19   89 1
    32   20   21 1
    33   21   22 1
    34   21   23 1
    35   23   24 2
    36   23   28 1
    37   24   25 2
    38   24   87 1
    39   25   26 1
    40   25   86 1
    41   26   27 1
    42   26   31 1
    43   27   28 2
    44   27   30 1
    45   28   29 1
    46   31   32 1
    47   31   33 1
    48   33   34 1
    49   34   35 1
    50   34   84 1
    51   34   85 1
    52   35   36 1
    53   35   82 1
    54   35   83 1
    55   36   37 1
    56   37   38 1
    57   37   39 1
    58   39   40 ar
    59   39   44 ar
    60   40   41 ar
    61   40   81 1
    62   41   42 ar
    63   41   80 1
    64   42   43 ar
    65   42   47 1
    66   43   44 ar
    67   43   46 1
    68   44   45 1
    69   47   48 1
    70   47   49 1
    71   49   50 1
    72   50   51 1
    73   50   78 1
    74   50   79 1
    75   51   52 1
    76   51   76 1
    77   51   77 1
    78   52   53 1
    79   53   54 1
    80   53   55 1
    81   55   56 1
    82   55   60 2
    83   56   57 2
    84   56   75 1
    85   57   58 1
    86   57   74 1
    87   58   59 1
    88   58   63 1
    89   59   60 2
    90   59   62 1
    91   60   61 1
    92   63   64 1
    93   63   65 1
    94   65   66 1
    95   66   67 1
    96   66   72 1
    97   66   73 1
    98   67   68 1
    99   67   70 1
   100   67   71 1
   101   68   69 1
@<TRIPOS>SUBSTRUCTURE
     1     POS1    1   GROUP 1   POS 1
