# Mol2 written by MVD (www.molegro.com)

#
# Pose information:
# Energy: -112.503
# RMSD: 7.24418
#
@<TRIPOS>MOLECULE
[08]PET_1
   98   101    1     0     0
SMALL
USER_CHARGES


@<TRIPOS>ATOM
      1 O1        -24.6574    4.2360   -3.0926 O.3       1     POS1    0.0000
      2 C1        -24.2057    5.2826   -2.2499 C.3       1     POS1    0.0000
      3 C2        -24.0891    4.6856   -0.8512 C.3       1     POS1    0.0000
      4 O2        -23.9116    5.7249    0.1168 O.3       1     POS1    0.0000
      5 C3        -24.1035    5.4045    1.4362 C.2       1     POS1    0.0000
      6 O3        -25.2107    4.9790    1.7803 O.3       1     POS1    0.0000
      7 C4        -22.9217    5.6244    2.2842 C.2       1     POS1    0.0000
      8 C5        -21.6364    5.7083    1.7334 C.2       1     POS1    0.0000
      9 C6        -20.5396    5.9181    2.5668 C.2       1     POS1    0.0000
     10 C7        -20.7247    6.0429    3.9491 C.2       1     POS1    0.0000
     11 C8        -22.0094    5.9597    4.4996 C.2       1     POS1    0.0000
     12 C9        -23.1068    5.7495    3.6674 C.2       1     POS1    0.0000
     13 H1        -24.1021    5.7232    4.0912 H         1     POS1    0.0000
     14 H2        -22.1644    6.1766    5.5485 H         1     POS1    0.0000
     15 C10       -19.5416    6.2629    4.7970 C.2       1     POS1    0.0000
     16 O4        -19.0629    5.4985    5.6379 O.3       1     POS1    0.0000
     17 O5        -18.9304    7.4737    4.5968 O.3       1     POS1    0.0000
     18 C11       -17.5616    7.4653    4.1802 C.3       1     POS1    0.0000
     19 C12       -17.4624    7.0626    2.7135 C.3       1     POS1    0.0000
     20 O6        -16.0925    6.8964    2.3407 O.3       1     POS1    0.0000
     21 C13       -15.8143    6.0250    1.3178 C.2       1     POS1    0.0000
     22 O7        -15.3629    6.4850    0.2658 O.3       1     POS1    0.0000
     23 C14       -16.1071    4.6178    1.6336 C.2       1     POS1    0.0000
     24 C15       -16.0409    4.1374    2.9474 C.2       1     POS1    0.0000
     25 C16       -16.3236    2.7988    3.2107 C.2       1     POS1    0.0000
     26 C17       -16.6726    1.9407    2.1602 C.2       1     POS1    0.0000
     27 C18       -16.7376    2.4202    0.8471 C.2       1     POS1    0.0000
     28 C19       -16.4557    3.7578    0.5827 C.2       1     POS1    0.0000
     29 H3        -16.5371    4.1559   -0.4139 H         1     POS1    0.0000
     30 H4        -17.0292    1.7636    0.0416 H         1     POS1    0.0000
     31 C20       -16.9789    0.5210    2.4023 C.2       1     POS1    0.0000
     32 O8        -17.5552    0.0290    3.3772 O.3       1     POS1    0.0000
     33 O9        -16.5617   -0.3205    1.4041 O.3       1     POS1    0.0000
     34 C21       -15.3185   -1.0053    1.5932 C.3       1     POS1    0.0000
     35 C22       -15.5117   -2.3774    2.2179 C.3       1     POS1    0.0000
     36 O10       -14.5581   -3.3279    1.7335 O.3       1     POS1    0.0000
     37 C23       -14.1082   -4.2779    2.6091 C.2       1     POS1    0.0000
     38 O11       -14.1266   -4.0178    3.8159 O.3       1     POS1    0.0000
     39 C24       -13.6418   -5.5178    1.9658 C.ar      1     POS1    0.0000
     40 C25       -12.8949   -6.4258    2.7291 C.ar      1     POS1    0.0000
     41 C26       -12.4387   -7.6084    2.1504 C.ar      1     POS1    0.0000
     42 C27       -12.7265   -7.8850    0.8107 C.ar      1     POS1    0.0000
     43 C28       -13.4735   -6.9774    0.0466 C.ar      1     POS1    0.0000
     44 C29       -13.9313   -5.7946    0.6234 C.ar      1     POS1    0.0000
     45 H5        -14.5239   -5.1037    0.0408 H         1     POS1    0.0000
     46 H6        -13.7537   -7.2093   -0.9675 H         1     POS1    0.0000
     47 C30       -12.2624   -9.1237    0.1632 C.2       1     POS1    0.0000
     48 O12       -11.1001   -9.4478   -0.0905 O.3       1     POS1    0.0000
     49 O13       -13.2780   -9.9761   -0.1892 O.3       1     POS1    0.0000
     50 C31       -13.0478  -10.9120   -1.2473 C.3       1     POS1    0.0000
     51 C32       -12.5941  -12.2425   -0.6633 C.3       1     POS1    0.0000
     52 O14       -11.2595  -12.5673   -1.0632 O.3       1     POS1    0.0000
     53 C33       -11.0490  -13.8040   -1.6194 C.2       1     POS1    0.0000
     54 O15       -10.4306  -14.6422   -0.9569 O.3       1     POS1    0.0000
     55 C34       -11.5933  -13.9514   -2.9776 C.2       1     POS1    0.0000
     56 C35       -12.9348  -14.3362   -3.1188 C.2       1     POS1    0.0000
     57 C36       -13.4833  -14.4822   -4.3902 C.2       1     POS1    0.0000
     58 C37       -12.6934  -14.2429   -5.5219 C.2       1     POS1    0.0000
     59 C38       -11.3556  -13.8589   -5.3828 C.2       1     POS1    0.0000
     60 C39       -10.8055  -13.7127   -4.1096 C.2       1     POS1    0.0000
     61 H7         -9.7736  -13.4023   -3.9992 H         1     POS1    0.0000
     62 H8        -10.7535  -13.6523   -6.2531 H         1     POS1    0.0000
     63 C40       -13.3084  -14.4092   -6.8497 C.2       1     POS1    0.0000
     64 O16       -14.3548  -14.9987   -7.1299 O.3       1     POS1    0.0000
     65 O17       -12.6028  -13.8223   -7.8698 O.3       1     POS1    0.0000
     66 C41       -13.2166  -13.7813   -9.1645 C.3       1     POS1    0.0000
     67 C42       -12.3051  -13.0631  -10.1525 C.3       1     POS1    0.0000
     68 O18       -11.0307  -13.6684  -10.2244 O.3       1     POS1    0.0000
     69 H9        -11.1420  -14.6279  -10.1146 H         1     POS1    0.0000
     70 H10       -12.1803  -11.9954   -9.8597 H         1     POS1    0.0000
     71 H11       -12.7670  -13.0816  -11.1663 H         1     POS1    0.0000
     72 H12       -14.0270  -13.1028   -8.9118 H         1     POS1    0.0000
     73 H13       -13.5830  -14.7086   -9.5849 H         1     POS1    0.0000
     74 H14       -14.4926  -14.8147   -4.4120 H         1     POS1    0.0000
     75 H15       -13.4485  -14.7175   -2.2778 H         1     POS1    0.0000
     76 H16       -13.3025  -13.0252   -1.0279 H         1     POS1    0.0000
     77 H17       -12.6771  -12.2487    0.4437 H         1     POS1    0.0000
     78 H18       -12.3013  -10.4988   -1.9603 H         1     POS1    0.0000
     79 H19       -13.9890  -11.0720   -1.8257 H         1     POS1    0.0000
     80 H20       -11.8537   -8.2962    2.7412 H         1     POS1    0.0000
     81 H21       -12.6872   -6.2018    3.7686 H         1     POS1    0.0000
     82 H22       -16.5423   -2.7487    2.0165 H         1     POS1    0.0000
     83 H23       -15.3989   -2.2787    3.3223 H         1     POS1    0.0000
     84 H24       -14.7067   -0.4000    2.2993 H         1     POS1    0.0000
     85 H25       -14.7223   -1.1279    0.6611 H         1     POS1    0.0000
     86 H26       -16.0404    2.4196    4.1634 H         1     POS1    0.0000
     87 H27       -15.3897    4.6152    3.6748 H         1     POS1    0.0000
     88 H28       -18.1699    7.8489    2.4678 H         1     POS1    0.0000
     89 H29       -17.9865    6.0905    2.5595 H         1     POS1    0.0000
     90 H30       -16.9712    6.5806    4.5367 H         1     POS1    0.0000
     91 H31       -17.1240    8.4932    3.9865 H         1     POS1    0.0000
     92 H32       -20.5138    6.8998    2.0740 H         1     POS1    0.0000
     93 H33       -21.5106    5.6503    0.6575 H         1     POS1    0.0000
     94 H34       -23.2032    4.0090   -0.8292 H         1     POS1    0.0000
     95 H35       -24.9628    4.0737   -0.5720 H         1     POS1    0.0000
     96 H36       -24.9532    6.1078   -2.2614 H         1     POS1    0.0000
     97 H37       -23.2325    5.6937   -2.5681 H         1     POS1    0.0000
     98 H38       -24.3358    4.4826   -3.9783 H         1     POS1    0.0000
@<TRIPOS>BOND
     1    1    2 1
     2    1   98 1
     3    2    3 1
     4    2   96 1
     5    2   97 1
     6    3    4 1
     7    3   94 1
     8    3   95 1
     9    4    5 1
    10    5    6 1
    11    5    7 1
    12    7    8 2
    13    7   12 1
    14    8    9 1
    15    8   93 1
    16    9   10 1
    17    9   92 1
    18   10   11 1
    19   10   15 1
    20   11   12 2
    21   11   14 1
    22   12   13 1
    23   15   16 1
    24   15   17 1
    25   17   18 1
    26   18   19 1
    27   18   90 1
    28   18   91 1
    29   19   20 1
    30   19   88 1
    31   19   89 1
    32   20   21 1
    33   21   22 1
    34   21   23 1
    35   23   24 2
    36   23   28 1
    37   24   25 2
    38   24   87 1
    39   25   26 1
    40   25   86 1
    41   26   27 1
    42   26   31 1
    43   27   28 2
    44   27   30 1
    45   28   29 1
    46   31   32 1
    47   31   33 1
    48   33   34 1
    49   34   35 1
    50   34   84 1
    51   34   85 1
    52   35   36 1
    53   35   82 1
    54   35   83 1
    55   36   37 1
    56   37   38 1
    57   37   39 1
    58   39   40 ar
    59   39   44 ar
    60   40   41 ar
    61   40   81 1
    62   41   42 ar
    63   41   80 1
    64   42   43 ar
    65   42   47 1
    66   43   44 ar
    67   43   46 1
    68   44   45 1
    69   47   48 1
    70   47   49 1
    71   49   50 1
    72   50   51 1
    73   50   78 1
    74   50   79 1
    75   51   52 1
    76   51   76 1
    77   51   77 1
    78   52   53 1
    79   53   54 1
    80   53   55 1
    81   55   56 1
    82   55   60 2
    83   56   57 2
    84   56   75 1
    85   57   58 1
    86   57   74 1
    87   58   59 1
    88   58   63 1
    89   59   60 2
    90   59   62 1
    91   60   61 1
    92   63   64 1
    93   63   65 1
    94   65   66 1
    95   66   67 1
    96   66   72 1
    97   66   73 1
    98   67   68 1
    99   67   70 1
   100   67   71 1
   101   68   69 1
@<TRIPOS>SUBSTRUCTURE
     1     POS1    1   GROUP 1   POS 1
