# Mol2 written by MVD (www.molegro.com)

#
# Pose information:
# Energy: -159.323
# RMSD: 12.2056
#
@<TRIPOS>MOLECULE
[09]PET_1
   98   101    1     0     0
SMALL
USER_CHARGES


@<TRIPOS>ATOM
      1 O1        -23.6304   -7.0834   -1.9822 O.3       1     POS1    0.0000
      2 C1        -23.6727   -7.5783   -0.6544 C.3       1     POS1    0.0000
      3 C2        -22.3820   -7.1176    0.0151 C.3       1     POS1    0.0000
      4 O2        -22.2761   -5.6914   -0.0441 O.3       1     POS1    0.0000
      5 C3        -23.0903   -4.9586    0.7807 C.2       1     POS1    0.0000
      6 O3        -24.3102   -5.0080    0.5937 O.3       1     POS1    0.0000
      7 C4        -22.3684   -4.1879    1.8050 C.2       1     POS1    0.0000
      8 C5        -20.9727   -4.2459    1.9098 C.2       1     POS1    0.0000
      9 C6        -20.3218   -3.5019    2.8917 C.2       1     POS1    0.0000
     10 C7        -21.0628   -2.7013    3.7694 C.2       1     POS1    0.0000
     11 C8        -22.4578   -2.6427    3.6642 C.2       1     POS1    0.0000
     12 C9        -23.1098   -3.3866    2.6832 C.2       1     POS1    0.0000
     13 H1        -24.1843   -3.3104    2.5800 H         1     POS1    0.0000
     14 H2        -23.0168   -1.9335    4.2609 H         1     POS1    0.0000
     15 C10       -20.3396   -1.9305    4.7941 C.2       1     POS1    0.0000
     16 O4        -20.5523   -1.9037    6.0085 O.3       1     POS1    0.0000
     17 O5        -19.3172   -1.1645    4.2963 O.3       1     POS1    0.0000
     18 C11       -17.9928   -1.7021    4.3617 C.3       1     POS1    0.0000
     19 C12       -16.9904   -0.6949    3.8105 C.3       1     POS1    0.0000
     20 O6        -15.9873   -1.3675    3.0458 O.3       1     POS1    0.0000
     21 C13       -15.8518   -1.0146    1.7267 C.2       1     POS1    0.0000
     22 O7        -15.4795   -1.8772    0.9271 O.3       1     POS1    0.0000
     23 C14       -16.1793    0.3925    1.4465 C.2       1     POS1    0.0000
     24 C15       -16.8144    0.7693    0.2566 C.2       1     POS1    0.0000
     25 C16       -17.1091    2.1108    0.0232 C.2       1     POS1    0.0000
     26 C17       -16.7687    3.0756    0.9798 C.2       1     POS1    0.0000
     27 C18       -16.1329    2.6995    2.1684 C.2       1     POS1    0.0000
     28 C19       -15.8383    1.3591    2.4030 C.2       1     POS1    0.0000
     29 H3        -15.3846    1.0437    3.3266 H         1     POS1    0.0000
     30 H4        -15.8920    3.4407    2.9150 H         1     POS1    0.0000
     31 C20       -17.0663    4.5018    0.7667 C.2       1     POS1    0.0000
     32 O8        -17.0434    5.1265   -0.2980 O.3       1     POS1    0.0000
     33 O9        -17.4071    5.1798    1.9082 O.3       1     POS1    0.0000
     34 C21       -17.1619    6.5902    1.9375 C.3       1     POS1    0.0000
     35 C22       -15.8032    6.9213    2.5331 C.3       1     POS1    0.0000
     36 O10       -15.7032    6.5168    3.9019 O.3       1     POS1    0.0000
     37 C23       -15.0423    5.3497    4.1720 C.2       1     POS1    0.0000
     38 O11       -13.8463    5.2718    3.8757 O.3       1     POS1    0.0000
     39 C24       -15.8819    4.3114    4.7930 C.ar      1     POS1    0.0000
     40 C25       -15.2836    3.0962    5.1533 C.ar      1     POS1    0.0000
     41 C26       -16.0501    2.0931    5.7432 C.ar      1     POS1    0.0000
     42 C27       -17.4132    2.3016    5.9726 C.ar      1     POS1    0.0000
     43 C28       -18.0125    3.5169    5.6126 C.ar      1     POS1    0.0000
     44 C29       -17.2478    4.5215    5.0234 C.ar      1     POS1    0.0000
     45 H5        -17.7045    5.4659    4.7636 H         1     POS1    0.0000
     46 H6        -19.0472    3.7111    5.8416 H         1     POS1    0.0000
     47 C30       -18.2568    1.2664    6.5936 C.2       1     POS1    0.0000
     48 O12       -17.8946    0.1853    7.0630 O.3       1     POS1    0.0000
     49 O13       -19.5914    1.5836    6.6182 O.3       1     POS1    0.0000
     50 C31       -20.3421    1.2867    7.8000 C.3       1     POS1    0.0000
     51 C32       -21.6500    2.0653    7.7840 C.3       1     POS1    0.0000
     52 O14       -22.0250    2.4949    9.0961 O.3       1     POS1    0.0000
     53 C33       -21.3331    3.5486    9.6385 C.2       1     POS1    0.0000
     54 O15       -21.2139    3.5960   10.8663 O.3       1     POS1    0.0000
     55 C34       -20.8321    4.5114    8.6463 C.2       1     POS1    0.0000
     56 C35       -21.4544    4.5571    7.3899 C.2       1     POS1    0.0000
     57 C36       -21.0073    5.4587    6.4279 C.2       1     POS1    0.0000
     58 C37       -19.9393    6.3168    6.7194 C.2       1     POS1    0.0000
     59 C38       -19.3178    6.2728    7.9718 C.2       1     POS1    0.0000
     60 C39       -19.7650    5.3696    8.9358 C.2       1     POS1    0.0000
     61 H7        -19.2941    5.3429    9.9110 H         1     POS1    0.0000
     62 H8        -18.5107    6.9486    8.2049 H         1     POS1    0.0000
     63 C40       -19.4937    7.2556    5.6759 C.2       1     POS1    0.0000
     64 O16       -19.6704    7.1721    4.4582 O.3       1     POS1    0.0000
     65 O17       -18.8046    8.3402    6.1573 O.3       1     POS1    0.0000
     66 C41       -17.6561    8.0873    6.9769 C.3       1     POS1    0.0000
     67 C42       -16.5132    7.5500    6.1237 C.3       1     POS1    0.0000
     68 O18       -15.4102    7.1568    6.9140 O.3       1     POS1    0.0000
     69 H9        -15.7480    6.7878    7.7475 H         1     POS1    0.0000
     70 H10       -16.1766    8.3226    5.3950 H         1     POS1    0.0000
     71 H11       -16.8665    6.6691    5.5401 H         1     POS1    0.0000
     72 H12       -18.0679    7.2527    7.5381 H         1     POS1    0.0000
     73 H13       -17.3095    8.8793    7.6277 H         1     POS1    0.0000
     74 H14       -21.5044    5.4031    5.4900 H         1     POS1    0.0000
     75 H15       -22.1034    3.7708    7.1121 H         1     POS1    0.0000
     76 H16       -22.4347    1.3898    7.3653 H         1     POS1    0.0000
     77 H17       -21.5964    2.9336    7.0947 H         1     POS1    0.0000
     78 H18       -19.7344    1.5202    8.7014 H         1     POS1    0.0000
     79 H19       -20.5706    0.1948    7.8417 H         1     POS1    0.0000
     80 H20       -15.5847    1.1558    6.0060 H         1     POS1    0.0000
     81 H21       -14.2243    2.9524    4.9772 H         1     POS1    0.0000
     82 H22       -15.6054    8.0144    2.4527 H         1     POS1    0.0000
     83 H23       -15.0221    6.3929    1.9391 H         1     POS1    0.0000
     84 H24       -17.9349    7.0510    2.5927 H         1     POS1    0.0000
     85 H25       -17.2356    7.0838    0.9425 H         1     POS1    0.0000
     86 H26       -17.3716    2.3860   -0.9703 H         1     POS1    0.0000
     87 H27       -16.7014    0.1668   -0.6410 H         1     POS1    0.0000
     88 H28       -16.9383   -0.2353    4.7930 H         1     POS1    0.0000
     89 H29       -17.5171    0.0237    3.1401 H         1     POS1    0.0000
     90 H30       -17.7617   -2.4691    3.5765 H         1     POS1    0.0000
     91 H31       -17.5295   -1.6829    5.3964 H         1     POS1    0.0000
     92 H32       -19.9559   -2.9242    2.0316 H         1     POS1    0.0000
     93 H33       -20.4069   -4.8383    1.1985 H         1     POS1    0.0000
     94 H34       -21.5210   -7.5720   -0.5283 H         1     POS1    0.0000
     95 H35       -22.3031   -7.4450    1.0650 H         1     POS1    0.0000
     96 H36       -23.7234   -8.6902   -0.6817 H         1     POS1    0.0000
     97 H37       -24.5450   -7.2064   -0.0904 H         1     POS1    0.0000
     98 H38       -24.5660   -7.0104   -2.2430 H         1     POS1    0.0000
@<TRIPOS>BOND
     1    1    2 1
     2    1   98 1
     3    2    3 1
     4    2   96 1
     5    2   97 1
     6    3    4 1
     7    3   94 1
     8    3   95 1
     9    4    5 1
    10    5    6 1
    11    5    7 1
    12    7    8 2
    13    7   12 1
    14    8    9 1
    15    8   93 1
    16    9   10 1
    17    9   92 1
    18   10   11 1
    19   10   15 1
    20   11   12 2
    21   11   14 1
    22   12   13 1
    23   15   16 1
    24   15   17 1
    25   17   18 1
    26   18   19 1
    27   18   90 1
    28   18   91 1
    29   19   20 1
    30   19   88 1
    31   19   89 1
    32   20   21 1
    33   21   22 1
    34   21   23 1
    35   23   24 2
    36   23   28 1
    37   24   25 2
    38   24   87 1
    39   25   26 1
    40   25   86 1
    41   26   27 1
    42   26   31 1
    43   27   28 2
    44   27   30 1
    45   28   29 1
    46   31   32 1
    47   31   33 1
    48   33   34 1
    49   34   35 1
    50   34   84 1
    51   34   85 1
    52   35   36 1
    53   35   82 1
    54   35   83 1
    55   36   37 1
    56   37   38 1
    57   37   39 1
    58   39   40 ar
    59   39   44 ar
    60   40   41 ar
    61   40   81 1
    62   41   42 ar
    63   41   80 1
    64   42   43 ar
    65   42   47 1
    66   43   44 ar
    67   43   46 1
    68   44   45 1
    69   47   48 1
    70   47   49 1
    71   49   50 1
    72   50   51 1
    73   50   78 1
    74   50   79 1
    75   51   52 1
    76   51   76 1
    77   51   77 1
    78   52   53 1
    79   53   54 1
    80   53   55 1
    81   55   56 1
    82   55   60 2
    83   56   57 2
    84   56   75 1
    85   57   58 1
    86   57   74 1
    87   58   59 1
    88   58   63 1
    89   59   60 2
    90   59   62 1
    91   60   61 1
    92   63   64 1
    93   63   65 1
    94   65   66 1
    95   66   67 1
    96   66   72 1
    97   66   73 1
    98   67   68 1
    99   67   70 1
   100   67   71 1
   101   68   69 1
@<TRIPOS>SUBSTRUCTURE
     1     POS1    1   GROUP 1   POS 1
