# Mol2 written by MVD (www.molegro.com)

#
# Pose information:
# Energy: -172.874
# RMSD: 5.74232
#
@<TRIPOS>MOLECULE
[04]PET_1
   98   101    1     0     0
SMALL
USER_CHARGES


@<TRIPOS>ATOM
      1 O1        -13.8145   11.4490    4.3734 O.3       1     POS1    0.0000
      2 C1        -14.0223   12.6027    5.1704 C.3       1     POS1    0.0000
      3 C2        -14.7428   12.1292    6.4287 C.3       1     POS1    0.0000
      4 O2        -15.9571   11.4568    6.0797 O.3       1     POS1    0.0000
      5 C3        -16.6082   10.7656    7.0690 C.2       1     POS1    0.0000
      6 O3        -16.9438   11.3782    8.0876 O.3       1     POS1    0.0000
      7 C4        -16.8186    9.3415    6.7662 C.2       1     POS1    0.0000
      8 C5        -16.2666    8.7517    5.6216 C.2       1     POS1    0.0000
      9 C6        -16.4857    7.3995    5.3667 C.2       1     POS1    0.0000
     10 C7        -17.2560    6.6362    6.2524 C.2       1     POS1    0.0000
     11 C8        -17.8071    7.2254    7.3967 C.2       1     POS1    0.0000
     12 C9        -17.5891    8.5774    7.6525 C.2       1     POS1    0.0000
     13 H1        -17.9846    9.0213    8.5567 H         1     POS1    0.0000
     14 H2        -18.2978    6.6104    8.1400 H         1     POS1    0.0000
     15 C10       -17.4660    5.2111    5.9486 C.2       1     POS1    0.0000
     16 O4        -18.5192    4.6545    5.6302 O.3       1     POS1    0.0000
     17 O5        -16.3308    4.4483    6.0440 O.3       1     POS1    0.0000
     18 C11       -15.3387    4.6047    5.0249 C.3       1     POS1    0.0000
     19 C12       -15.7793    3.8935    3.7508 C.3       1     POS1    0.0000
     20 O6        -16.5623    4.7742    2.9417 O.3       1     POS1    0.0000
     21 C13       -16.8432    4.3762    1.6589 C.2       1     POS1    0.0000
     22 O7        -17.2524    5.2238    0.8613 O.3       1     POS1    0.0000
     23 C14       -16.6101    2.9444    1.4115 C.2       1     POS1    0.0000
     24 C15       -16.5271    2.4344    0.1098 C.2       1     POS1    0.0000
     25 C16       -16.3063    1.0731   -0.0882 C.2       1     POS1    0.0000
     26 C17       -16.1685    0.2218    1.0154 C.2       1     POS1    0.0000
     27 C18       -16.2528    0.7310    2.3162 C.2       1     POS1    0.0000
     28 C19       -16.4729    2.0912    2.5155 C.2       1     POS1    0.0000
     29 H3        -16.5028    2.5095    3.5067 H         1     POS1    0.0000
     30 H4        -16.1234    0.0780    3.1658 H         1     POS1    0.0000
     31 C20       -15.9332   -1.2214    0.8430 C.2       1     POS1    0.0000
     32 O8        -15.5686   -1.8096   -0.1795 O.3       1     POS1    0.0000
     33 O9        -16.1528   -1.9640    1.9740 O.3       1     POS1    0.0000
     34 C21       -16.1900   -3.3885    1.8327 C.3       1     POS1    0.0000
     35 C22       -14.8104   -3.9730    1.5767 C.3       1     POS1    0.0000
     36 O10       -14.0434   -4.0875    2.7792 O.3       1     POS1    0.0000
     37 C23       -12.7146   -4.3894    2.6578 C.2       1     POS1    0.0000
     38 O11       -11.8909   -3.4849    2.8245 O.3       1     POS1    0.0000
     39 C24       -12.4445   -5.7986    2.3263 C.ar      1     POS1    0.0000
     40 C25       -13.5259   -6.6242    1.9892 C.ar      1     POS1    0.0000
     41 C26       -13.3043   -7.9624    1.6701 C.ar      1     POS1    0.0000
     42 C27       -12.0048   -8.4773    1.6884 C.ar      1     POS1    0.0000
     43 C28       -10.9226   -7.6521    2.0254 C.ar      1     POS1    0.0000
     44 C29       -11.1417   -6.3136    2.3440 C.ar      1     POS1    0.0000
     45 H5        -10.3061   -5.6719    2.5847 H         1     POS1    0.0000
     46 H6         -9.9118   -8.0224    1.9819 H         1     POS1    0.0000
     47 C30       -11.7297   -9.8857    1.3574 C.2       1     POS1    0.0000
     48 O12       -11.1629  -10.7249    2.0608 O.3       1     POS1    0.0000
     49 O13       -12.1627  -10.2539    0.1086 O.3       1     POS1    0.0000
     50 C31       -11.2500  -10.9375   -0.7564 C.3       1     POS1    0.0000
     51 C32       -11.9084  -11.1767   -2.1078 C.3       1     POS1    0.0000
     52 O14       -11.2463  -10.4577   -3.1525 O.3       1     POS1    0.0000
     53 C33        -9.8797  -10.5601   -3.2231 C.2       1     POS1    0.0000
     54 O15        -9.2089   -9.5438   -3.0204 O.3       1     POS1    0.0000
     55 C34        -9.3958  -11.9075   -3.5593 C.2       1     POS1    0.0000
     56 C35        -8.0176  -12.0930   -3.7434 C.2       1     POS1    0.0000
     57 C36        -7.5249  -13.3562   -4.0595 C.2       1     POS1    0.0000
     58 C37        -8.4074  -14.4359   -4.1910 C.2       1     POS1    0.0000
     59 C38        -9.7820  -14.2527   -4.0075 C.2       1     POS1    0.0000
     60 C39       -10.2761  -12.9876   -3.6911 C.2       1     POS1    0.0000
     61 H7        -11.3387  -12.8459   -3.5353 H         1     POS1    0.0000
     62 H8        -10.4594  -15.0878   -4.0860 H         1     POS1    0.0000
     63 C40        -7.8490  -15.7565   -4.5277 C.2       1     POS1    0.0000
     64 O16        -6.7263  -16.1927   -4.2624 O.3       1     POS1    0.0000
     65 O17        -8.7131  -16.5692   -5.2174 O.3       1     POS1    0.0000
     66 C41        -9.0366  -16.2033   -6.5651 C.3       1     POS1    0.0000
     67 C42        -9.9784  -17.2347   -7.1750 C.3       1     POS1    0.0000
     68 O18        -9.3980  -18.5225   -7.2013 O.3       1     POS1    0.0000
     69 H9         -8.8456  -18.6244   -6.4080 H         1     POS1    0.0000
     70 H10       -10.2530  -16.9425   -8.2145 H         1     POS1    0.0000
     71 H11       -10.9187  -17.2788   -6.5790 H         1     POS1    0.0000
     72 H12        -8.0507  -16.3649   -6.9926 H         1     POS1    0.0000
     73 H13        -9.3965  -15.1994   -6.7487 H         1     POS1    0.0000
     74 H14        -6.4756  -13.4049   -4.2220 H         1     POS1    0.0000
     75 H15        -7.3978  -11.2443   -3.8539 H         1     POS1    0.0000
     76 H16       -12.9698  -10.8388   -2.0258 H         1     POS1    0.0000
     77 H17       -11.9514  -12.2588   -2.3519 H         1     POS1    0.0000
     78 H18       -10.9227  -11.8889   -0.2831 H         1     POS1    0.0000
     79 H19       -10.3315  -10.3207   -0.9047 H         1     POS1    0.0000
     80 H20       -14.1435   -8.5945    1.4241 H         1     POS1    0.0000
     81 H21       -14.5263   -6.2088    1.9709 H         1     POS1    0.0000
     82 H22       -14.2581   -3.3444    0.8416 H         1     POS1    0.0000
     83 H23       -14.9364   -4.9850    1.1273 H         1     POS1    0.0000
     84 H24       -16.8209   -3.6207    0.9455 H         1     POS1    0.0000
     85 H25       -16.6367   -3.9187    2.7035 H         1     POS1    0.0000
     86 H26       -16.4805    0.6886   -1.0647 H         1     POS1    0.0000
     87 H27       -17.0351    2.9357   -0.7100 H         1     POS1    0.0000
     88 H28       -16.0740    3.0380    4.3510 H         1     POS1    0.0000
     89 H29       -14.8800    3.5893    3.1659 H         1     POS1    0.0000
     90 H30       -14.4303    3.9596    5.1556 H         1     POS1    0.0000
     91 H31       -15.3369    5.6220    4.5244 H         1     POS1    0.0000
     92 H32       -15.4132    7.3142    5.5897 H         1     POS1    0.0000
     93 H33       -15.6385    9.3439    4.9646 H         1     POS1    0.0000
     94 H34       -14.9839   13.0205    7.0537 H         1     POS1    0.0000
     95 H35       -14.1240   11.4627    7.0520 H         1     POS1    0.0000
     96 H36       -14.6544   13.3256    4.6069 H         1     POS1    0.0000
     97 H37       -13.0791   13.1068    5.4417 H         1     POS1    0.0000
     98 H38       -13.0369   11.6678    3.8292 H         1     POS1    0.0000
@<TRIPOS>BOND
     1    1    2 1
     2    1   98 1
     3    2    3 1
     4    2   96 1
     5    2   97 1
     6    3    4 1
     7    3   94 1
     8    3   95 1
     9    4    5 1
    10    5    6 1
    11    5    7 1
    12    7    8 2
    13    7   12 1
    14    8    9 1
    15    8   93 1
    16    9   10 1
    17    9   92 1
    18   10   11 1
    19   10   15 1
    20   11   12 2
    21   11   14 1
    22   12   13 1
    23   15   16 1
    24   15   17 1
    25   17   18 1
    26   18   19 1
    27   18   90 1
    28   18   91 1
    29   19   20 1
    30   19   88 1
    31   19   89 1
    32   20   21 1
    33   21   22 1
    34   21   23 1
    35   23   24 2
    36   23   28 1
    37   24   25 2
    38   24   87 1
    39   25   26 1
    40   25   86 1
    41   26   27 1
    42   26   31 1
    43   27   28 2
    44   27   30 1
    45   28   29 1
    46   31   32 1
    47   31   33 1
    48   33   34 1
    49   34   35 1
    50   34   84 1
    51   34   85 1
    52   35   36 1
    53   35   82 1
    54   35   83 1
    55   36   37 1
    56   37   38 1
    57   37   39 1
    58   39   40 ar
    59   39   44 ar
    60   40   41 ar
    61   40   81 1
    62   41   42 ar
    63   41   80 1
    64   42   43 ar
    65   42   47 1
    66   43   44 ar
    67   43   46 1
    68   44   45 1
    69   47   48 1
    70   47   49 1
    71   49   50 1
    72   50   51 1
    73   50   78 1
    74   50   79 1
    75   51   52 1
    76   51   76 1
    77   51   77 1
    78   52   53 1
    79   53   54 1
    80   53   55 1
    81   55   56 1
    82   55   60 2
    83   56   57 2
    84   56   75 1
    85   57   58 1
    86   57   74 1
    87   58   59 1
    88   58   63 1
    89   59   60 2
    90   59   62 1
    91   60   61 1
    92   63   64 1
    93   63   65 1
    94   65   66 1
    95   66   67 1
    96   66   72 1
    97   66   73 1
    98   67   68 1
    99   67   70 1
   100   67   71 1
   101   68   69 1
@<TRIPOS>SUBSTRUCTURE
     1     POS1    1   GROUP 1   POS 1
